version 3
run config1-0-20241216-04:57:06-6753
attr configname config1
attr datetime 20241216-04:57:06
attr datetimef 20241216-045706
attr experiment config1
attr inifile omnetpp.ini
attr iterationvars ""
attr iterationvarsd ""
attr iterationvarsf ""
attr measurement ""
attr network Topology
attr processid 6753
attr repetition 0
attr replication #0
attr resultdir results
attr runnumber 0
attr seedset 0
config image-path ../../simu5G/images:../../inet4.5/images
config extends General
config *.switch1.macTable.forwardingTable "[{address:\"0A-AA-00-00-00-01\", interface:\"eth1\"}, {address:\"0A-AA-00-00-00-1D\", interface:\"eth0\"}]"
config *.switch2.macTable.forwardingTable "[{address:\"0A-AA-00-00-00-01\", interface:\"eth1\"}, {address:\"0A-AA-00-00-00-1E\", interface:\"eth0\"}]"
config *.switch3.macTable.forwardingTable "[{address:\"0A-AA-00-00-00-01\", interface:\"eth1\"},{address:\"0A-AA-00-00-00-23\", interface:\"eth0\"}]"
config *.switch4.macTable.forwardingTable "[{address:\"0A-AA-00-00-00-01\", interface:\"eth1\"},{address:\"0A-AA-00-00-00-24\", interface:\"eth0\"}]"
config *.switch5.macTable.forwardingTable "[{address:\"0A-AA-00-00-00-01\", interface:\"eth2\"},{address:\"0A-AA-00-00-00-1D\", interface:\"eth0\"},{address:\"0A-AA-00-00-00-1E\", interface:\"eth1\"}]"
config *.switch6.macTable.forwardingTable "[{address:\"0A-AA-00-00-00-01\", interface:\"eth2\"},{address:\"0A-AA-00-00-00-23\", interface:\"eth0\"},{address:\"0A-AA-00-00-00-24\", interface:\"eth1\"}]"
config *.switch7.macTable.forwardingTable "[{address:\"0A-AA-00-00-00-01\", interface:\"eth2\"},{address:\"0A-AA-00-00-00-1D\", interface:\"eth0\"},{address:\"0A-AA-00-00-00-1E\", interface:\"eth0\"}\n\t\t\t\t\t\t\t\t\t\t,{address:\"0A-AA-00-00-00-23\", interface:\"eth1\"},{address:\"0A-AA-00-00-00-24\", interface:\"eth1\"}]"
config *.server.app[*].source.packetNameFormat "\"%m-%e\""
config *.server.app[*].source.initialProductionOffset 10ms
config network Topology
config *.server.ipv4.routingTable.routingFile "\"server.mrt\""
config **.ipv4.arp.typename GlobalArp
config *.*Ue[*].DSTT.DSTT.destAddress "\"server\""
config **.selector.filePath "\"/home/simu5g/simu5g-workspace/test/exp1/path.txt\""
config **.mobility.constraintAreaMaxX 1200m
config **.mobility.constraintAreaMaxY 1000m
config **.mobility.constraintAreaMinX 0m
config **.mobility.constraintAreaMinY 0m
config **.mobility.constraintAreaMinZ 0m
config **.mobility.constraintAreaMaxZ 0m
config **.mobility.initFromDisplayString false
config *.gnb*1.mobility.initialX 500m
config *.gnb*2.mobility.initialX 700m
config *.gnb*3.mobility.initialX 900m
config *.gnb*4.mobility.initialX 1100m
config *.gnbL1.mobility.initialY 400m
config *.gnbL2.mobility.initialY 400m
config *.gnbL3.mobility.initialY 350m
config *.gnbL4.mobility.initialY 350m
config *.gnbR1.mobility.initialY 350m
config *.gnbR2.mobility.initialY 350m
config *.gnbR3.mobility.initialY 400m
config *.gnbR4.mobility.initialY 400m
config *.*Ue[*].mobility.initialY 450m
config *.*Ue[0].mobility.initialX 450m
config *.*Ue[1].mobility.initialX 550m
config *.*Ue[2].mobility.initialX 650m
config *.*Ue[3].mobility.initialX 750m
config *.*Ue[4].mobility.initialX 850m
config *.*Ue[5].mobility.initialX 950m
config *.*Ue[6].mobility.initialX 1050m
config *.*Ue[7].mobility.initialX 1150m
config *.*Ue[*].macCellId 0
config *.*Ue[*].masterId 0
config *.*Ue[*].nrMacCellId 1
config *.*Ue[*].nrMasterId 1
config **.dynamicCellAssociation true
config **.enableHandover true
config *.carrierAggregation.numComponentCarriers 1
config *.carrierAggregation.componentCarrier[0].carrierFrequency 2GHz
config *.carrierAggregation.componentCarrier[0].numBands 6
config *.gnb*.cellularNic.numCarriers 1
config *.gnb.cellularNic.channelModel[0].componentCarrierIndex 0
config *.*Ue[*].cellularNic.numNRCarriers 1
config *.*Ue[*].cellularNic.nrChannelModel[0].componentCarrierIndex 0
config *.*.hasOutgoingStreams true
config *.*Client*.bridging.streamIdentifier.identifier.mapping "[{stream: \"besteffort\", packetFilter: expr(has(udp) && (udp.destPort == 1000 || udp.destPort == 1002))},\n\t\t\t\t\t\t\t\t\t\t\t\t\t\t\t{stream: \"video\", packetFilter: expr(has(udp) && udp.destPort == 1001 )}]"
config *.*Client*.bridging.streamCoder.encoder.mapping "[{stream: \"besteffort\", pcp: 0},\n\t\t\t\t\t\t\t\t\t\t\t\t\t{stream: \"video\", pcp: 4}]"
config *.server.bridging.streamIdentifier.identifier.mapping "[{stream: \"besteffort\", packetFilter: expr(has(udp) && (udp.destPort == 1000 || udp.destPort == 1002))},\n\t\t\t\t\t\t\t\t\t\t\t\t\t\t\t{stream: \"video\", packetFilter: expr(has(udp) && udp.destPort == 1001)}]"
config *.server.bridging.streamCoder.encoder.mapping "[{stream: \"besteffort\", pcp: 0},\n\t\t\t\t\t\t\t\t\t\t\t\t\t{stream: \"video\", pcp: 4}]"
config *.switch*.bridging.streamIdentifier.identifier.mapping "[{stream: \"besteffort\", packetFilter: expr(has(udp) && (udp.destPort == 1000 || udp.destPort == 1002))},\n\t\t\t\t\t\t\t\t\t\t\t\t\t\t\t{stream: \"video\", packetFilter: expr(has(udp) && udp.destPort == 1001)}]"
config *.switch*.bridging.streamCoder.encoder.mapping "[{stream: \"besteffort\", pcp: 0},\n\t\t\t\t\t\t\t\t\t\t\t\t\t{stream: \"video\", pcp: 4}]"
config *.switch*.bridging.streamCoder.decoder.mapping "[{pcp: 0, stream: \"besteffort\"},\n                                                 {pcp: 4, stream: \"video\"}]"
config *.switch*.hasEgressTrafficShaping true
config *.switch*.bridging.directionReverser.reverser.excludeEncapsulationProtocols "[\"ieee8021qctag\"]"
config *.switch*.eth[*].macLayer.queue.numTrafficClasses 2
config *.switch*.eth[*].macLayer.queue.*[0].display-name besteffort
config *.switch*.eth[*].macLayer.queue.*[1].display-name video
config *.*.DSTT.DSTT.destPort "intuniform(1000, 1500)"
config *.*Client*.numApps 3
config *.*Client*.app[0].typename UdpSourceApp
config *.*Client*.app[0].display-name besteffort
config *.*Client*.app[0].io.destAddress "\"server\""
config *.*Client*.app[0].io.destPort 1000
config *.*Client*.app[0].io.localPort 1000
config *.*Client*.app[0].source.packetLength 460B
config *.*Client*.app[0].source.productionInterval 1ms
config *.*Client*.app[0].source.initialProductionOffset 0s
config *.HVACClient*.app[0].source.packetLength 36B
config *.HVACClient*.app[0].source.productionInterval 200ms
config *.DCUClient*.app[0].source.packetLength 42B
config *.DCUClient*.app[0].source.productionInterval 500ms
config *.BCClient*.app[0].source.packetLength 102B
config *.BCClient*.app[0].source.productionInterval 200ms
config *.BCUClient*.app[0].source.packetLength 46B
config *.BCUClient*.app[0].source.productionInterval 10ms
config *.TCUClient*.app[0].source.packetLength 77B
config *.TCUClient*.app[0].source.productionInterval 10ms
config *.*Client*.app[1].typename UdpSinkApp
config *.*Client*.app[1].display-name video
config *.*Client*.app[1].io.localPort 1001
config *.*Client*.app[2].typename UdpSinkApp
config *.*Client*.app[2].display-name besteffort
config *.*Client*.app[2].io.localPort 1002
config *.server.numApps 41
config *.server.app[*].io.localPort 1000+ancestorIndex(1)
config *.server.app[0].typename UdpSinkApp
config *.server.app[0].display-name besteffort
config *.server.app[1..40].typename UdpSourceApp
config *.server.app[1..16].io.destPort 1001
config *.server.app[17..40].io.destPort 1002
config *.server.app[1].io.destAddress "\"BCUClient[0]\""
config *.server.app[2].io.destAddress "\"BCUClient[1]\""
config *.server.app[3].io.destAddress "\"BCUClient[2]\""
config *.server.app[4].io.destAddress "\"BCUClient[3]\""
config *.server.app[5].io.destAddress "\"BCUClient[4]\""
config *.server.app[6].io.destAddress "\"BCUClient[5]\""
config *.server.app[7].io.destAddress "\"BCUClient[6]\""
config *.server.app[8].io.destAddress "\"BCUClient[7]\""
config *.server.app[9].io.destAddress "\"TCUClient[0]\""
config *.server.app[10].io.destAddress "\"TCUClient[1]\""
config *.server.app[11].io.destAddress "\"TCUClient[2]\""
config *.server.app[12].io.destAddress "\"TCUClient[3]\""
config *.server.app[13].io.destAddress "\"TCUClient[4]\""
config *.server.app[14].io.destAddress "\"TCUClient[5]\""
config *.server.app[15].io.destAddress "\"TCUClient[6]\""
config *.server.app[16].io.destAddress "\"TCUClient[7]\""
config *.server.app[17].io.destAddress "\"BCClient[0]\""
config *.server.app[18].io.destAddress "\"BCClient[1]\""
config *.server.app[19].io.destAddress "\"BCClient[2]\""
config *.server.app[20].io.destAddress "\"BCClient[3]\""
config *.server.app[21].io.destAddress "\"BCClient[4]\""
config *.server.app[22].io.destAddress "\"BCClient[5]\""
config *.server.app[23].io.destAddress "\"BCClient[6]\""
config *.server.app[24].io.destAddress "\"BCClient[7]\""
config *.server.app[25].io.destAddress "\"HVACClient[0]\""
config *.server.app[26].io.destAddress "\"HVACClient[1]\""
config *.server.app[27].io.destAddress "\"HVACClient[2]\""
config *.server.app[28].io.destAddress "\"HVACClient[3]\""
config *.server.app[29].io.destAddress "\"HVACClient[4]\""
config *.server.app[30].io.destAddress "\"HVACClient[5]\""
config *.server.app[31].io.destAddress "\"HVACClient[6]\""
config *.server.app[32].io.destAddress "\"HVACClient[7]\""
config *.server.app[33].io.destAddress "\"DCUClient[0]\""
config *.server.app[34].io.destAddress "\"DCUClient[1]\""
config *.server.app[35].io.destAddress "\"DCUClient[2]\""
config *.server.app[36].io.destAddress "\"DCUClient[3]\""
config *.server.app[37].io.destAddress "\"DCUClient[4]\""
config *.server.app[38].io.destAddress "\"DCUClient[5]\""
config *.server.app[39].io.destAddress "\"DCUClient[6]\""
config *.server.app[40].io.destAddress "\"DCUClient[7]\""
config *.server.app[1..8].display-name BCUServer
config *.server.app[1..8].source.packetLength 24B
config *.server.app[1..8].source.productionInterval 10ms
config *.server.app[9..16].display-name TCUServer
config *.server.app[9..16].source.packetLength 40B
config *.server.app[9..16].source.productionInterval 10ms
config *.server.app[17..24].display-name BCServer
config *.server.app[17..24].source.packetLength 24B
config *.server.app[17..24].source.productionInterval 200ms
config *.server.app[25..32].display-name HVACServer
config *.server.app[25..32].source.packetLength 16B
config *.server.app[25..32].source.productionInterval 200ms
config *.server.app[33..40].display-name DCUServer
config *.server.app[33..40].source.packetLength 20B
config *.server.app[33..40].source.productionInterval 500ms

vector 0 Topology.server.eth[0].phyLayer.interFrameGapInserter interpacketGap:vector ETV
attr interpolationmode sample-hold
attr recordingmode vector
attr source "count(interpacketGapStarted) - count(interpacketGapEnded)"
attr title "interpacket gap state"
attr type int
vector 1 Topology.server.eth[0].phyLayer.transmitter transmitting:vector ETV
attr interpolationmode sample-hold
attr recordingmode vector
attr source "count(transmissionStarted) - count(transmissionEnded)"
attr title "transmitting state"
attr type int
vector 2 Topology.server.udp passedUpPk:vector(count) ETV
attr interpolationmode none
attr recordingmode vector(count)
attr source packetSentToUpper
attr title "packets passed up, count"
vector 3 Topology.server.udp droppedPkWrongPort:vector(count) ETV
attr interpolationmode none
attr recordingmode vector(count)
attr source packetDropReasonIsNoPortFound(packetDropped)
attr title "packets dropped (wrong port), count"
vector 4 Topology.server.udp droppedPkBadChecksum:vector(count) ETV
attr interpolationmode none
attr recordingmode vector(count)
attr source packetDropReasonIsIncorrectlyReceived(packetDropped)
attr title "packets dropped (checksum error), count"
vector 5 Topology.switch1.eth[0].phyLayer.interFrameGapInserter interpacketGap:vector ETV
attr interpolationmode sample-hold
attr recordingmode vector
attr source "count(interpacketGapStarted) - count(interpacketGapEnded)"
attr title "interpacket gap state"
attr type int
vector 6 Topology.switch1.eth[0].phyLayer.transmitter transmitting:vector ETV
attr interpolationmode sample-hold
attr recordingmode vector
attr source "count(transmissionStarted) - count(transmissionEnded)"
attr title "transmitting state"
attr type int
vector 7 Topology.switch1.eth[1].phyLayer.interFrameGapInserter interpacketGap:vector ETV
attr interpolationmode sample-hold
attr recordingmode vector
attr source "count(interpacketGapStarted) - count(interpacketGapEnded)"
attr title "interpacket gap state"
attr type int
vector 8 Topology.switch1.eth[1].phyLayer.transmitter transmitting:vector ETV
attr interpolationmode sample-hold
attr recordingmode vector
attr source "count(transmissionStarted) - count(transmissionEnded)"
attr title "transmitting state"
attr type int
vector 9 Topology.switch1.eth[2].phyLayer.interFrameGapInserter interpacketGap:vector ETV
attr interpolationmode sample-hold
attr recordingmode vector
attr source "count(interpacketGapStarted) - count(interpacketGapEnded)"
attr title "interpacket gap state"
attr type int
vector 10 Topology.switch1.eth[2].phyLayer.transmitter transmitting:vector ETV
attr interpolationmode sample-hold
attr recordingmode vector
attr source "count(transmissionStarted) - count(transmissionEnded)"
attr title "transmitting state"
attr type int
vector 11 Topology.switch2.eth[0].phyLayer.interFrameGapInserter interpacketGap:vector ETV
attr interpolationmode sample-hold
attr recordingmode vector
attr source "count(interpacketGapStarted) - count(interpacketGapEnded)"
attr title "interpacket gap state"
attr type int
vector 12 Topology.switch2.eth[0].phyLayer.transmitter transmitting:vector ETV
attr interpolationmode sample-hold
attr recordingmode vector
attr source "count(transmissionStarted) - count(transmissionEnded)"
attr title "transmitting state"
attr type int
vector 13 Topology.switch2.eth[1].phyLayer.interFrameGapInserter interpacketGap:vector ETV
attr interpolationmode sample-hold
attr recordingmode vector
attr source "count(interpacketGapStarted) - count(interpacketGapEnded)"
attr title "interpacket gap state"
attr type int
vector 14 Topology.switch2.eth[1].phyLayer.transmitter transmitting:vector ETV
attr interpolationmode sample-hold
attr recordingmode vector
attr source "count(transmissionStarted) - count(transmissionEnded)"
attr title "transmitting state"
attr type int
vector 15 Topology.switch2.eth[2].phyLayer.interFrameGapInserter interpacketGap:vector ETV
attr interpolationmode sample-hold
attr recordingmode vector
attr source "count(interpacketGapStarted) - count(interpacketGapEnded)"
attr title "interpacket gap state"
attr type int
vector 16 Topology.switch2.eth[2].phyLayer.transmitter transmitting:vector ETV
attr interpolationmode sample-hold
attr recordingmode vector
attr source "count(transmissionStarted) - count(transmissionEnded)"
attr title "transmitting state"
attr type int
vector 17 Topology.switch2.eth[3].phyLayer.interFrameGapInserter interpacketGap:vector ETV
attr interpolationmode sample-hold
attr recordingmode vector
attr source "count(interpacketGapStarted) - count(interpacketGapEnded)"
attr title "interpacket gap state"
attr type int
vector 18 Topology.switch2.eth[3].phyLayer.transmitter transmitting:vector ETV
attr interpolationmode sample-hold
attr recordingmode vector
attr source "count(transmissionStarted) - count(transmissionEnded)"
attr title "transmitting state"
attr type int
vector 19 Topology.switch3.eth[0].phyLayer.interFrameGapInserter interpacketGap:vector ETV
attr interpolationmode sample-hold
attr recordingmode vector
attr source "count(interpacketGapStarted) - count(interpacketGapEnded)"
attr title "interpacket gap state"
attr type int
vector 20 Topology.switch3.eth[0].phyLayer.transmitter transmitting:vector ETV
attr interpolationmode sample-hold
attr recordingmode vector
attr source "count(transmissionStarted) - count(transmissionEnded)"
attr title "transmitting state"
attr type int
vector 21 Topology.switch3.eth[1].phyLayer.interFrameGapInserter interpacketGap:vector ETV
attr interpolationmode sample-hold
attr recordingmode vector
attr source "count(interpacketGapStarted) - count(interpacketGapEnded)"
attr title "interpacket gap state"
attr type int
vector 22 Topology.switch3.eth[1].phyLayer.transmitter transmitting:vector ETV
attr interpolationmode sample-hold
attr recordingmode vector
attr source "count(transmissionStarted) - count(transmissionEnded)"
attr title "transmitting state"
attr type int
vector 23 Topology.switch3.eth[2].phyLayer.interFrameGapInserter interpacketGap:vector ETV
attr interpolationmode sample-hold
attr recordingmode vector
attr source "count(interpacketGapStarted) - count(interpacketGapEnded)"
attr title "interpacket gap state"
attr type int
vector 24 Topology.switch3.eth[2].phyLayer.transmitter transmitting:vector ETV
attr interpolationmode sample-hold
attr recordingmode vector
attr source "count(transmissionStarted) - count(transmissionEnded)"
attr title "transmitting state"
attr type int
vector 25 Topology.switch3.eth[3].phyLayer.interFrameGapInserter interpacketGap:vector ETV
attr interpolationmode sample-hold
attr recordingmode vector
attr source "count(interpacketGapStarted) - count(interpacketGapEnded)"
attr title "interpacket gap state"
attr type int
vector 26 Topology.switch3.eth[3].phyLayer.transmitter transmitting:vector ETV
attr interpolationmode sample-hold
attr recordingmode vector
attr source "count(transmissionStarted) - count(transmissionEnded)"
attr title "transmitting state"
attr type int
vector 27 Topology.switch4.eth[0].phyLayer.interFrameGapInserter interpacketGap:vector ETV
attr interpolationmode sample-hold
attr recordingmode vector
attr source "count(interpacketGapStarted) - count(interpacketGapEnded)"
attr title "interpacket gap state"
attr type int
vector 28 Topology.switch4.eth[0].phyLayer.transmitter transmitting:vector ETV
attr interpolationmode sample-hold
attr recordingmode vector
attr source "count(transmissionStarted) - count(transmissionEnded)"
attr title "transmitting state"
attr type int
vector 29 Topology.switch4.eth[1].phyLayer.interFrameGapInserter interpacketGap:vector ETV
attr interpolationmode sample-hold
attr recordingmode vector
attr source "count(interpacketGapStarted) - count(interpacketGapEnded)"
attr title "interpacket gap state"
attr type int
vector 30 Topology.switch4.eth[1].phyLayer.transmitter transmitting:vector ETV
attr interpolationmode sample-hold
attr recordingmode vector
attr source "count(transmissionStarted) - count(transmissionEnded)"
attr title "transmitting state"
attr type int
vector 31 Topology.switch4.eth[2].phyLayer.interFrameGapInserter interpacketGap:vector ETV
attr interpolationmode sample-hold
attr recordingmode vector
attr source "count(interpacketGapStarted) - count(interpacketGapEnded)"
attr title "interpacket gap state"
attr type int
vector 32 Topology.switch4.eth[2].phyLayer.transmitter transmitting:vector ETV
attr interpolationmode sample-hold
attr recordingmode vector
attr source "count(transmissionStarted) - count(transmissionEnded)"
attr title "transmitting state"
attr type int
vector 33 Topology.switch5.eth[0].phyLayer.interFrameGapInserter interpacketGap:vector ETV
attr interpolationmode sample-hold
attr recordingmode vector
attr source "count(interpacketGapStarted) - count(interpacketGapEnded)"
attr title "interpacket gap state"
attr type int
vector 34 Topology.switch5.eth[0].phyLayer.transmitter transmitting:vector ETV
attr interpolationmode sample-hold
attr recordingmode vector
attr source "count(transmissionStarted) - count(transmissionEnded)"
attr title "transmitting state"
attr type int
vector 35 Topology.switch5.eth[1].phyLayer.interFrameGapInserter interpacketGap:vector ETV
attr interpolationmode sample-hold
attr recordingmode vector
attr source "count(interpacketGapStarted) - count(interpacketGapEnded)"
attr title "interpacket gap state"
attr type int
vector 36 Topology.switch5.eth[1].phyLayer.transmitter transmitting:vector ETV
attr interpolationmode sample-hold
attr recordingmode vector
attr source "count(transmissionStarted) - count(transmissionEnded)"
attr title "transmitting state"
attr type int
vector 37 Topology.switch5.eth[2].phyLayer.interFrameGapInserter interpacketGap:vector ETV
attr interpolationmode sample-hold
attr recordingmode vector
attr source "count(interpacketGapStarted) - count(interpacketGapEnded)"
attr title "interpacket gap state"
attr type int
vector 38 Topology.switch5.eth[2].phyLayer.transmitter transmitting:vector ETV
attr interpolationmode sample-hold
attr recordingmode vector
attr source "count(transmissionStarted) - count(transmissionEnded)"
attr title "transmitting state"
attr type int
vector 39 Topology.switch6.eth[0].phyLayer.interFrameGapInserter interpacketGap:vector ETV
attr interpolationmode sample-hold
attr recordingmode vector
attr source "count(interpacketGapStarted) - count(interpacketGapEnded)"
attr title "interpacket gap state"
attr type int
vector 40 Topology.switch6.eth[0].phyLayer.transmitter transmitting:vector ETV
attr interpolationmode sample-hold
attr recordingmode vector
attr source "count(transmissionStarted) - count(transmissionEnded)"
attr title "transmitting state"
attr type int
vector 41 Topology.switch6.eth[1].phyLayer.interFrameGapInserter interpacketGap:vector ETV
attr interpolationmode sample-hold
attr recordingmode vector
attr source "count(interpacketGapStarted) - count(interpacketGapEnded)"
attr title "interpacket gap state"
attr type int
vector 42 Topology.switch6.eth[1].phyLayer.transmitter transmitting:vector ETV
attr interpolationmode sample-hold
attr recordingmode vector
attr source "count(transmissionStarted) - count(transmissionEnded)"
attr title "transmitting state"
attr type int
vector 43 Topology.switch6.eth[2].phyLayer.interFrameGapInserter interpacketGap:vector ETV
attr interpolationmode sample-hold
attr recordingmode vector
attr source "count(interpacketGapStarted) - count(interpacketGapEnded)"
attr title "interpacket gap state"
attr type int
vector 44 Topology.switch6.eth[2].phyLayer.transmitter transmitting:vector ETV
attr interpolationmode sample-hold
attr recordingmode vector
attr source "count(transmissionStarted) - count(transmissionEnded)"
attr title "transmitting state"
attr type int
vector 45 Topology.switch7.eth[0].phyLayer.interFrameGapInserter interpacketGap:vector ETV
attr interpolationmode sample-hold
attr recordingmode vector
attr source "count(interpacketGapStarted) - count(interpacketGapEnded)"
attr title "interpacket gap state"
attr type int
vector 46 Topology.switch7.eth[0].phyLayer.transmitter transmitting:vector ETV
attr interpolationmode sample-hold
attr recordingmode vector
attr source "count(transmissionStarted) - count(transmissionEnded)"
attr title "transmitting state"
attr type int
vector 47 Topology.switch7.eth[1].phyLayer.interFrameGapInserter interpacketGap:vector ETV
attr interpolationmode sample-hold
attr recordingmode vector
attr source "count(interpacketGapStarted) - count(interpacketGapEnded)"
attr title "interpacket gap state"
attr type int
vector 48 Topology.switch7.eth[1].phyLayer.transmitter transmitting:vector ETV
attr interpolationmode sample-hold
attr recordingmode vector
attr source "count(transmissionStarted) - count(transmissionEnded)"
attr title "transmitting state"
attr type int
vector 49 Topology.switch7.eth[2].phyLayer.interFrameGapInserter interpacketGap:vector ETV
attr interpolationmode sample-hold
attr recordingmode vector
attr source "count(interpacketGapStarted) - count(interpacketGapEnded)"
attr title "interpacket gap state"
attr type int
vector 50 Topology.switch7.eth[2].phyLayer.transmitter transmitting:vector ETV
attr interpolationmode sample-hold
attr recordingmode vector
attr source "count(transmissionStarted) - count(transmissionEnded)"
attr title "transmitting state"
attr type int
vector 51 Topology.upf1.ppp[0].ppp transmissionState:vector ETV
attr interpolationmode sample-hold
attr recordingmode vector
attr source transmissionStateChanged
attr title "tx state"
vector 52 Topology.upf1.ppp[1].ppp transmissionState:vector ETV
attr interpolationmode sample-hold
attr recordingmode vector
attr source transmissionStateChanged
attr title "tx state"
vector 53 Topology.upf1.udp passedUpPk:vector(count) ETV
attr interpolationmode none
attr recordingmode vector(count)
attr source packetSentToUpper
attr title "packets passed up, count"
vector 54 Topology.upf1.udp droppedPkWrongPort:vector(count) ETV
attr interpolationmode none
attr recordingmode vector(count)
attr source packetDropReasonIsNoPortFound(packetDropped)
attr title "packets dropped (wrong port), count"
vector 55 Topology.upf1.udp droppedPkBadChecksum:vector(count) ETV
attr interpolationmode none
attr recordingmode vector(count)
attr source packetDropReasonIsIncorrectlyReceived(packetDropped)
attr title "packets dropped (checksum error), count"
vector 56 Topology.upf1.NWTT.phyLayer.interFrameGapInserter interpacketGap:vector ETV
attr interpolationmode sample-hold
attr recordingmode vector
attr source "count(interpacketGapStarted) - count(interpacketGapEnded)"
attr title "interpacket gap state"
attr type int
vector 57 Topology.upf1.NWTT.phyLayer.transmitter transmitting:vector ETV
attr interpolationmode sample-hold
attr recordingmode vector
attr source "count(transmissionStarted) - count(transmissionEnded)"
attr title "transmitting state"
attr type int
vector 58 Topology.upf2.ppp[0].ppp transmissionState:vector ETV
attr interpolationmode sample-hold
attr recordingmode vector
attr source transmissionStateChanged
attr title "tx state"
vector 59 Topology.upf2.ppp[1].ppp transmissionState:vector ETV
attr interpolationmode sample-hold
attr recordingmode vector
attr source transmissionStateChanged
attr title "tx state"
vector 60 Topology.upf2.udp passedUpPk:vector(count) ETV
attr interpolationmode none
attr recordingmode vector(count)
attr source packetSentToUpper
attr title "packets passed up, count"
vector 61 Topology.upf2.udp droppedPkWrongPort:vector(count) ETV
attr interpolationmode none
attr recordingmode vector(count)
attr source packetDropReasonIsNoPortFound(packetDropped)
attr title "packets dropped (wrong port), count"
vector 62 Topology.upf2.udp droppedPkBadChecksum:vector(count) ETV
attr interpolationmode none
attr recordingmode vector(count)
attr source packetDropReasonIsIncorrectlyReceived(packetDropped)
attr title "packets dropped (checksum error), count"
vector 63 Topology.upf2.NWTT.phyLayer.interFrameGapInserter interpacketGap:vector ETV
attr interpolationmode sample-hold
attr recordingmode vector
attr source "count(interpacketGapStarted) - count(interpacketGapEnded)"
attr title "interpacket gap state"
attr type int
vector 64 Topology.upf2.NWTT.phyLayer.transmitter transmitting:vector ETV
attr interpolationmode sample-hold
attr recordingmode vector
attr source "count(transmissionStarted) - count(transmissionEnded)"
attr title "transmitting state"
attr type int
vector 65 Topology.upf3.ppp[0].ppp transmissionState:vector ETV
attr interpolationmode sample-hold
attr recordingmode vector
attr source transmissionStateChanged
attr title "tx state"
vector 66 Topology.upf3.ppp[1].ppp transmissionState:vector ETV
attr interpolationmode sample-hold
attr recordingmode vector
attr source transmissionStateChanged
attr title "tx state"
vector 67 Topology.upf3.udp passedUpPk:vector(count) ETV
attr interpolationmode none
attr recordingmode vector(count)
attr source packetSentToUpper
attr title "packets passed up, count"
vector 68 Topology.upf3.udp droppedPkWrongPort:vector(count) ETV
attr interpolationmode none
attr recordingmode vector(count)
attr source packetDropReasonIsNoPortFound(packetDropped)
attr title "packets dropped (wrong port), count"
vector 69 Topology.upf3.udp droppedPkBadChecksum:vector(count) ETV
attr interpolationmode none
attr recordingmode vector(count)
attr source packetDropReasonIsIncorrectlyReceived(packetDropped)
attr title "packets dropped (checksum error), count"
vector 70 Topology.upf3.NWTT.phyLayer.interFrameGapInserter interpacketGap:vector ETV
attr interpolationmode sample-hold
attr recordingmode vector
attr source "count(interpacketGapStarted) - count(interpacketGapEnded)"
attr title "interpacket gap state"
attr type int
vector 71 Topology.upf3.NWTT.phyLayer.transmitter transmitting:vector ETV
attr interpolationmode sample-hold
attr recordingmode vector
attr source "count(transmissionStarted) - count(transmissionEnded)"
attr title "transmitting state"
attr type int
vector 72 Topology.upf4.ppp[0].ppp transmissionState:vector ETV
attr interpolationmode sample-hold
attr recordingmode vector
attr source transmissionStateChanged
attr title "tx state"
vector 73 Topology.upf4.ppp[1].ppp transmissionState:vector ETV
attr interpolationmode sample-hold
attr recordingmode vector
attr source transmissionStateChanged
attr title "tx state"
vector 74 Topology.upf4.udp passedUpPk:vector(count) ETV
attr interpolationmode none
attr recordingmode vector(count)
attr source packetSentToUpper
attr title "packets passed up, count"
vector 75 Topology.upf4.udp droppedPkWrongPort:vector(count) ETV
attr interpolationmode none
attr recordingmode vector(count)
attr source packetDropReasonIsNoPortFound(packetDropped)
attr title "packets dropped (wrong port), count"
vector 76 Topology.upf4.udp droppedPkBadChecksum:vector(count) ETV
attr interpolationmode none
attr recordingmode vector(count)
attr source packetDropReasonIsIncorrectlyReceived(packetDropped)
attr title "packets dropped (checksum error), count"
vector 77 Topology.upf4.NWTT.phyLayer.interFrameGapInserter interpacketGap:vector ETV
attr interpolationmode sample-hold
attr recordingmode vector
attr source "count(interpacketGapStarted) - count(interpacketGapEnded)"
attr title "interpacket gap state"
attr type int
vector 78 Topology.upf4.NWTT.phyLayer.transmitter transmitting:vector ETV
attr interpolationmode sample-hold
attr recordingmode vector
attr source "count(transmissionStarted) - count(transmissionEnded)"
attr title "transmitting state"
attr type int
vector 79 Topology.gnbL1.pppIf.ppp transmissionState:vector ETV
attr interpolationmode sample-hold
attr recordingmode vector
attr source transmissionStateChanged
attr title "tx state"
vector 80 Topology.gnbL1.pppMEHostIf.ppp transmissionState:vector ETV
attr interpolationmode sample-hold
attr recordingmode vector
attr source transmissionStateChanged
attr title "tx state"
vector 81 Topology.gnbL1.udp passedUpPk:vector(count) ETV
attr interpolationmode none
attr recordingmode vector(count)
attr source packetSentToUpper
attr title "packets passed up, count"
vector 82 Topology.gnbL1.udp droppedPkWrongPort:vector(count) ETV
attr interpolationmode none
attr recordingmode vector(count)
attr source packetDropReasonIsNoPortFound(packetDropped)
attr title "packets dropped (wrong port), count"
vector 83 Topology.gnbL1.udp droppedPkBadChecksum:vector(count) ETV
attr interpolationmode none
attr recordingmode vector(count)
attr source packetDropReasonIsIncorrectlyReceived(packetDropped)
attr title "packets dropped (checksum error), count"
vector 84 Topology.gnbL2.pppIf.ppp transmissionState:vector ETV
attr interpolationmode sample-hold
attr recordingmode vector
attr source transmissionStateChanged
attr title "tx state"
vector 85 Topology.gnbL2.pppMEHostIf.ppp transmissionState:vector ETV
attr interpolationmode sample-hold
attr recordingmode vector
attr source transmissionStateChanged
attr title "tx state"
vector 86 Topology.gnbL2.udp passedUpPk:vector(count) ETV
attr interpolationmode none
attr recordingmode vector(count)
attr source packetSentToUpper
attr title "packets passed up, count"
vector 87 Topology.gnbL2.udp droppedPkWrongPort:vector(count) ETV
attr interpolationmode none
attr recordingmode vector(count)
attr source packetDropReasonIsNoPortFound(packetDropped)
attr title "packets dropped (wrong port), count"
vector 88 Topology.gnbL2.udp droppedPkBadChecksum:vector(count) ETV
attr interpolationmode none
attr recordingmode vector(count)
attr source packetDropReasonIsIncorrectlyReceived(packetDropped)
attr title "packets dropped (checksum error), count"
vector 89 Topology.gnbL3.pppIf.ppp transmissionState:vector ETV
attr interpolationmode sample-hold
attr recordingmode vector
attr source transmissionStateChanged
attr title "tx state"
vector 90 Topology.gnbL3.pppMEHostIf.ppp transmissionState:vector ETV
attr interpolationmode sample-hold
attr recordingmode vector
attr source transmissionStateChanged
attr title "tx state"
vector 91 Topology.gnbL3.udp passedUpPk:vector(count) ETV
attr interpolationmode none
attr recordingmode vector(count)
attr source packetSentToUpper
attr title "packets passed up, count"
vector 92 Topology.gnbL3.udp droppedPkWrongPort:vector(count) ETV
attr interpolationmode none
attr recordingmode vector(count)
attr source packetDropReasonIsNoPortFound(packetDropped)
attr title "packets dropped (wrong port), count"
vector 93 Topology.gnbL3.udp droppedPkBadChecksum:vector(count) ETV
attr interpolationmode none
attr recordingmode vector(count)
attr source packetDropReasonIsIncorrectlyReceived(packetDropped)
attr title "packets dropped (checksum error), count"
vector 94 Topology.gnbL4.pppIf.ppp transmissionState:vector ETV
attr interpolationmode sample-hold
attr recordingmode vector
attr source transmissionStateChanged
attr title "tx state"
vector 95 Topology.gnbL4.pppMEHostIf.ppp transmissionState:vector ETV
attr interpolationmode sample-hold
attr recordingmode vector
attr source transmissionStateChanged
attr title "tx state"
vector 96 Topology.gnbL4.udp passedUpPk:vector(count) ETV
attr interpolationmode none
attr recordingmode vector(count)
attr source packetSentToUpper
attr title "packets passed up, count"
vector 97 Topology.gnbL4.udp droppedPkWrongPort:vector(count) ETV
attr interpolationmode none
attr recordingmode vector(count)
attr source packetDropReasonIsNoPortFound(packetDropped)
attr title "packets dropped (wrong port), count"
vector 98 Topology.gnbL4.udp droppedPkBadChecksum:vector(count) ETV
attr interpolationmode none
attr recordingmode vector(count)
attr source packetDropReasonIsIncorrectlyReceived(packetDropped)
attr title "packets dropped (checksum error), count"
vector 99 Topology.gnbR1.pppIf.ppp transmissionState:vector ETV
attr interpolationmode sample-hold
attr recordingmode vector
attr source transmissionStateChanged
attr title "tx state"
vector 100 Topology.gnbR1.pppMEHostIf.ppp transmissionState:vector ETV
attr interpolationmode sample-hold
attr recordingmode vector
attr source transmissionStateChanged
attr title "tx state"
vector 101 Topology.gnbR1.udp passedUpPk:vector(count) ETV
attr interpolationmode none
attr recordingmode vector(count)
attr source packetSentToUpper
attr title "packets passed up, count"
vector 102 Topology.gnbR1.udp droppedPkWrongPort:vector(count) ETV
attr interpolationmode none
attr recordingmode vector(count)
attr source packetDropReasonIsNoPortFound(packetDropped)
attr title "packets dropped (wrong port), count"
vector 103 Topology.gnbR1.udp droppedPkBadChecksum:vector(count) ETV
attr interpolationmode none
attr recordingmode vector(count)
attr source packetDropReasonIsIncorrectlyReceived(packetDropped)
attr title "packets dropped (checksum error), count"
vector 104 Topology.gnbR2.pppIf.ppp transmissionState:vector ETV
attr interpolationmode sample-hold
attr recordingmode vector
attr source transmissionStateChanged
attr title "tx state"
vector 105 Topology.gnbR2.pppMEHostIf.ppp transmissionState:vector ETV
attr interpolationmode sample-hold
attr recordingmode vector
attr source transmissionStateChanged
attr title "tx state"
vector 106 Topology.gnbR2.udp passedUpPk:vector(count) ETV
attr interpolationmode none
attr recordingmode vector(count)
attr source packetSentToUpper
attr title "packets passed up, count"
vector 107 Topology.gnbR2.udp droppedPkWrongPort:vector(count) ETV
attr interpolationmode none
attr recordingmode vector(count)
attr source packetDropReasonIsNoPortFound(packetDropped)
attr title "packets dropped (wrong port), count"
vector 108 Topology.gnbR2.udp droppedPkBadChecksum:vector(count) ETV
attr interpolationmode none
attr recordingmode vector(count)
attr source packetDropReasonIsIncorrectlyReceived(packetDropped)
attr title "packets dropped (checksum error), count"
vector 109 Topology.gnbR3.pppIf.ppp transmissionState:vector ETV
attr interpolationmode sample-hold
attr recordingmode vector
attr source transmissionStateChanged
attr title "tx state"
vector 110 Topology.gnbR3.pppMEHostIf.ppp transmissionState:vector ETV
attr interpolationmode sample-hold
attr recordingmode vector
attr source transmissionStateChanged
attr title "tx state"
vector 111 Topology.gnbR3.udp passedUpPk:vector(count) ETV
attr interpolationmode none
attr recordingmode vector(count)
attr source packetSentToUpper
attr title "packets passed up, count"
vector 112 Topology.gnbR3.udp droppedPkWrongPort:vector(count) ETV
attr interpolationmode none
attr recordingmode vector(count)
attr source packetDropReasonIsNoPortFound(packetDropped)
attr title "packets dropped (wrong port), count"
vector 113 Topology.gnbR3.udp droppedPkBadChecksum:vector(count) ETV
attr interpolationmode none
attr recordingmode vector(count)
attr source packetDropReasonIsIncorrectlyReceived(packetDropped)
attr title "packets dropped (checksum error), count"
vector 114 Topology.gnbR4.pppIf.ppp transmissionState:vector ETV
attr interpolationmode sample-hold
attr recordingmode vector
attr source transmissionStateChanged
attr title "tx state"
vector 115 Topology.gnbR4.pppMEHostIf.ppp transmissionState:vector ETV
attr interpolationmode sample-hold
attr recordingmode vector
attr source transmissionStateChanged
attr title "tx state"
vector 116 Topology.gnbR4.udp passedUpPk:vector(count) ETV
attr interpolationmode none
attr recordingmode vector(count)
attr source packetSentToUpper
attr title "packets passed up, count"
vector 117 Topology.gnbR4.udp droppedPkWrongPort:vector(count) ETV
attr interpolationmode none
attr recordingmode vector(count)
attr source packetDropReasonIsNoPortFound(packetDropped)
attr title "packets dropped (wrong port), count"
vector 118 Topology.gnbR4.udp droppedPkBadChecksum:vector(count) ETV
attr interpolationmode none
attr recordingmode vector(count)
attr source packetDropReasonIsIncorrectlyReceived(packetDropped)
attr title "packets dropped (checksum error), count"
vector 119 Topology.HVACClient[0].eth[0].phyLayer.interFrameGapInserter interpacketGap:vector ETV
attr interpolationmode sample-hold
attr recordingmode vector
attr source "count(interpacketGapStarted) - count(interpacketGapEnded)"
attr title "interpacket gap state"
attr type int
vector 120 Topology.HVACClient[0].eth[0].phyLayer.transmitter transmitting:vector ETV
attr interpolationmode sample-hold
attr recordingmode vector
attr source "count(transmissionStarted) - count(transmissionEnded)"
attr title "transmitting state"
attr type int
vector 121 Topology.HVACClient[0].udp passedUpPk:vector(count) ETV
attr interpolationmode none
attr recordingmode vector(count)
attr source packetSentToUpper
attr title "packets passed up, count"
vector 122 Topology.HVACClient[0].udp droppedPkWrongPort:vector(count) ETV
attr interpolationmode none
attr recordingmode vector(count)
attr source packetDropReasonIsNoPortFound(packetDropped)
attr title "packets dropped (wrong port), count"
vector 123 Topology.HVACClient[0].udp droppedPkBadChecksum:vector(count) ETV
attr interpolationmode none
attr recordingmode vector(count)
attr source packetDropReasonIsIncorrectlyReceived(packetDropped)
attr title "packets dropped (checksum error), count"
vector 124 Topology.HVACClient[1].eth[0].phyLayer.interFrameGapInserter interpacketGap:vector ETV
attr interpolationmode sample-hold
attr recordingmode vector
attr source "count(interpacketGapStarted) - count(interpacketGapEnded)"
attr title "interpacket gap state"
attr type int
vector 125 Topology.HVACClient[1].eth[0].phyLayer.transmitter transmitting:vector ETV
attr interpolationmode sample-hold
attr recordingmode vector
attr source "count(transmissionStarted) - count(transmissionEnded)"
attr title "transmitting state"
attr type int
vector 126 Topology.HVACClient[1].udp passedUpPk:vector(count) ETV
attr interpolationmode none
attr recordingmode vector(count)
attr source packetSentToUpper
attr title "packets passed up, count"
vector 127 Topology.HVACClient[1].udp droppedPkWrongPort:vector(count) ETV
attr interpolationmode none
attr recordingmode vector(count)
attr source packetDropReasonIsNoPortFound(packetDropped)
attr title "packets dropped (wrong port), count"
vector 128 Topology.HVACClient[1].udp droppedPkBadChecksum:vector(count) ETV
attr interpolationmode none
attr recordingmode vector(count)
attr source packetDropReasonIsIncorrectlyReceived(packetDropped)
attr title "packets dropped (checksum error), count"
vector 129 Topology.HVACClient[2].eth[0].phyLayer.interFrameGapInserter interpacketGap:vector ETV
attr interpolationmode sample-hold
attr recordingmode vector
attr source "count(interpacketGapStarted) - count(interpacketGapEnded)"
attr title "interpacket gap state"
attr type int
vector 130 Topology.HVACClient[2].eth[0].phyLayer.transmitter transmitting:vector ETV
attr interpolationmode sample-hold
attr recordingmode vector
attr source "count(transmissionStarted) - count(transmissionEnded)"
attr title "transmitting state"
attr type int
vector 131 Topology.HVACClient[2].udp passedUpPk:vector(count) ETV
attr interpolationmode none
attr recordingmode vector(count)
attr source packetSentToUpper
attr title "packets passed up, count"
vector 132 Topology.HVACClient[2].udp droppedPkWrongPort:vector(count) ETV
attr interpolationmode none
attr recordingmode vector(count)
attr source packetDropReasonIsNoPortFound(packetDropped)
attr title "packets dropped (wrong port), count"
vector 133 Topology.HVACClient[2].udp droppedPkBadChecksum:vector(count) ETV
attr interpolationmode none
attr recordingmode vector(count)
attr source packetDropReasonIsIncorrectlyReceived(packetDropped)
attr title "packets dropped (checksum error), count"
vector 134 Topology.HVACClient[3].eth[0].phyLayer.interFrameGapInserter interpacketGap:vector ETV
attr interpolationmode sample-hold
attr recordingmode vector
attr source "count(interpacketGapStarted) - count(interpacketGapEnded)"
attr title "interpacket gap state"
attr type int
vector 135 Topology.HVACClient[3].eth[0].phyLayer.transmitter transmitting:vector ETV
attr interpolationmode sample-hold
attr recordingmode vector
attr source "count(transmissionStarted) - count(transmissionEnded)"
attr title "transmitting state"
attr type int
vector 136 Topology.HVACClient[3].udp passedUpPk:vector(count) ETV
attr interpolationmode none
attr recordingmode vector(count)
attr source packetSentToUpper
attr title "packets passed up, count"
vector 137 Topology.HVACClient[3].udp droppedPkWrongPort:vector(count) ETV
attr interpolationmode none
attr recordingmode vector(count)
attr source packetDropReasonIsNoPortFound(packetDropped)
attr title "packets dropped (wrong port), count"
vector 138 Topology.HVACClient[3].udp droppedPkBadChecksum:vector(count) ETV
attr interpolationmode none
attr recordingmode vector(count)
attr source packetDropReasonIsIncorrectlyReceived(packetDropped)
attr title "packets dropped (checksum error), count"
vector 139 Topology.HVACClient[4].eth[0].phyLayer.interFrameGapInserter interpacketGap:vector ETV
attr interpolationmode sample-hold
attr recordingmode vector
attr source "count(interpacketGapStarted) - count(interpacketGapEnded)"
attr title "interpacket gap state"
attr type int
vector 140 Topology.HVACClient[4].eth[0].phyLayer.transmitter transmitting:vector ETV
attr interpolationmode sample-hold
attr recordingmode vector
attr source "count(transmissionStarted) - count(transmissionEnded)"
attr title "transmitting state"
attr type int
vector 141 Topology.HVACClient[4].udp passedUpPk:vector(count) ETV
attr interpolationmode none
attr recordingmode vector(count)
attr source packetSentToUpper
attr title "packets passed up, count"
vector 142 Topology.HVACClient[4].udp droppedPkWrongPort:vector(count) ETV
attr interpolationmode none
attr recordingmode vector(count)
attr source packetDropReasonIsNoPortFound(packetDropped)
attr title "packets dropped (wrong port), count"
vector 143 Topology.HVACClient[4].udp droppedPkBadChecksum:vector(count) ETV
attr interpolationmode none
attr recordingmode vector(count)
attr source packetDropReasonIsIncorrectlyReceived(packetDropped)
attr title "packets dropped (checksum error), count"
vector 144 Topology.HVACClient[5].eth[0].phyLayer.interFrameGapInserter interpacketGap:vector ETV
attr interpolationmode sample-hold
attr recordingmode vector
attr source "count(interpacketGapStarted) - count(interpacketGapEnded)"
attr title "interpacket gap state"
attr type int
vector 145 Topology.HVACClient[5].eth[0].phyLayer.transmitter transmitting:vector ETV
attr interpolationmode sample-hold
attr recordingmode vector
attr source "count(transmissionStarted) - count(transmissionEnded)"
attr title "transmitting state"
attr type int
vector 146 Topology.HVACClient[5].udp passedUpPk:vector(count) ETV
attr interpolationmode none
attr recordingmode vector(count)
attr source packetSentToUpper
attr title "packets passed up, count"
vector 147 Topology.HVACClient[5].udp droppedPkWrongPort:vector(count) ETV
attr interpolationmode none
attr recordingmode vector(count)
attr source packetDropReasonIsNoPortFound(packetDropped)
attr title "packets dropped (wrong port), count"
vector 148 Topology.HVACClient[5].udp droppedPkBadChecksum:vector(count) ETV
attr interpolationmode none
attr recordingmode vector(count)
attr source packetDropReasonIsIncorrectlyReceived(packetDropped)
attr title "packets dropped (checksum error), count"
vector 149 Topology.HVACClient[6].eth[0].phyLayer.interFrameGapInserter interpacketGap:vector ETV
attr interpolationmode sample-hold
attr recordingmode vector
attr source "count(interpacketGapStarted) - count(interpacketGapEnded)"
attr title "interpacket gap state"
attr type int
vector 150 Topology.HVACClient[6].eth[0].phyLayer.transmitter transmitting:vector ETV
attr interpolationmode sample-hold
attr recordingmode vector
attr source "count(transmissionStarted) - count(transmissionEnded)"
attr title "transmitting state"
attr type int
vector 151 Topology.HVACClient[6].udp passedUpPk:vector(count) ETV
attr interpolationmode none
attr recordingmode vector(count)
attr source packetSentToUpper
attr title "packets passed up, count"
vector 152 Topology.HVACClient[6].udp droppedPkWrongPort:vector(count) ETV
attr interpolationmode none
attr recordingmode vector(count)
attr source packetDropReasonIsNoPortFound(packetDropped)
attr title "packets dropped (wrong port), count"
vector 153 Topology.HVACClient[6].udp droppedPkBadChecksum:vector(count) ETV
attr interpolationmode none
attr recordingmode vector(count)
attr source packetDropReasonIsIncorrectlyReceived(packetDropped)
attr title "packets dropped (checksum error), count"
vector 154 Topology.HVACClient[7].eth[0].phyLayer.interFrameGapInserter interpacketGap:vector ETV
attr interpolationmode sample-hold
attr recordingmode vector
attr source "count(interpacketGapStarted) - count(interpacketGapEnded)"
attr title "interpacket gap state"
attr type int
vector 155 Topology.HVACClient[7].eth[0].phyLayer.transmitter transmitting:vector ETV
attr interpolationmode sample-hold
attr recordingmode vector
attr source "count(transmissionStarted) - count(transmissionEnded)"
attr title "transmitting state"
attr type int
vector 156 Topology.HVACClient[7].udp passedUpPk:vector(count) ETV
attr interpolationmode none
attr recordingmode vector(count)
attr source packetSentToUpper
attr title "packets passed up, count"
vector 157 Topology.HVACClient[7].udp droppedPkWrongPort:vector(count) ETV
attr interpolationmode none
attr recordingmode vector(count)
attr source packetDropReasonIsNoPortFound(packetDropped)
attr title "packets dropped (wrong port), count"
vector 158 Topology.HVACClient[7].udp droppedPkBadChecksum:vector(count) ETV
attr interpolationmode none
attr recordingmode vector(count)
attr source packetDropReasonIsIncorrectlyReceived(packetDropped)
attr title "packets dropped (checksum error), count"
vector 159 Topology.HVACUe[0].udp passedUpPk:vector(count) ETV
attr interpolationmode none
attr recordingmode vector(count)
attr source packetSentToUpper
attr title "packets passed up, count"
vector 160 Topology.HVACUe[0].udp droppedPkWrongPort:vector(count) ETV
attr interpolationmode none
attr recordingmode vector(count)
attr source packetDropReasonIsNoPortFound(packetDropped)
attr title "packets dropped (wrong port), count"
vector 161 Topology.HVACUe[0].udp droppedPkBadChecksum:vector(count) ETV
attr interpolationmode none
attr recordingmode vector(count)
attr source packetDropReasonIsIncorrectlyReceived(packetDropped)
attr title "packets dropped (checksum error), count"
vector 162 Topology.HVACUe[0].DSTT.phyLayer.interFrameGapInserter interpacketGap:vector ETV
attr interpolationmode sample-hold
attr recordingmode vector
attr source "count(interpacketGapStarted) - count(interpacketGapEnded)"
attr title "interpacket gap state"
attr type int
vector 163 Topology.HVACUe[0].DSTT.phyLayer.transmitter transmitting:vector ETV
attr interpolationmode sample-hold
attr recordingmode vector
attr source "count(transmissionStarted) - count(transmissionEnded)"
attr title "transmitting state"
attr type int
vector 164 Topology.HVACUe[1].udp passedUpPk:vector(count) ETV
attr interpolationmode none
attr recordingmode vector(count)
attr source packetSentToUpper
attr title "packets passed up, count"
vector 165 Topology.HVACUe[1].udp droppedPkWrongPort:vector(count) ETV
attr interpolationmode none
attr recordingmode vector(count)
attr source packetDropReasonIsNoPortFound(packetDropped)
attr title "packets dropped (wrong port), count"
vector 166 Topology.HVACUe[1].udp droppedPkBadChecksum:vector(count) ETV
attr interpolationmode none
attr recordingmode vector(count)
attr source packetDropReasonIsIncorrectlyReceived(packetDropped)
attr title "packets dropped (checksum error), count"
vector 167 Topology.HVACUe[1].DSTT.phyLayer.interFrameGapInserter interpacketGap:vector ETV
attr interpolationmode sample-hold
attr recordingmode vector
attr source "count(interpacketGapStarted) - count(interpacketGapEnded)"
attr title "interpacket gap state"
attr type int
vector 168 Topology.HVACUe[1].DSTT.phyLayer.transmitter transmitting:vector ETV
attr interpolationmode sample-hold
attr recordingmode vector
attr source "count(transmissionStarted) - count(transmissionEnded)"
attr title "transmitting state"
attr type int
vector 169 Topology.HVACUe[2].udp passedUpPk:vector(count) ETV
attr interpolationmode none
attr recordingmode vector(count)
attr source packetSentToUpper
attr title "packets passed up, count"
vector 170 Topology.HVACUe[2].udp droppedPkWrongPort:vector(count) ETV
attr interpolationmode none
attr recordingmode vector(count)
attr source packetDropReasonIsNoPortFound(packetDropped)
attr title "packets dropped (wrong port), count"
vector 171 Topology.HVACUe[2].udp droppedPkBadChecksum:vector(count) ETV
attr interpolationmode none
attr recordingmode vector(count)
attr source packetDropReasonIsIncorrectlyReceived(packetDropped)
attr title "packets dropped (checksum error), count"
vector 172 Topology.HVACUe[2].DSTT.phyLayer.interFrameGapInserter interpacketGap:vector ETV
attr interpolationmode sample-hold
attr recordingmode vector
attr source "count(interpacketGapStarted) - count(interpacketGapEnded)"
attr title "interpacket gap state"
attr type int
vector 173 Topology.HVACUe[2].DSTT.phyLayer.transmitter transmitting:vector ETV
attr interpolationmode sample-hold
attr recordingmode vector
attr source "count(transmissionStarted) - count(transmissionEnded)"
attr title "transmitting state"
attr type int
vector 174 Topology.HVACUe[3].udp passedUpPk:vector(count) ETV
attr interpolationmode none
attr recordingmode vector(count)
attr source packetSentToUpper
attr title "packets passed up, count"
vector 175 Topology.HVACUe[3].udp droppedPkWrongPort:vector(count) ETV
attr interpolationmode none
attr recordingmode vector(count)
attr source packetDropReasonIsNoPortFound(packetDropped)
attr title "packets dropped (wrong port), count"
vector 176 Topology.HVACUe[3].udp droppedPkBadChecksum:vector(count) ETV
attr interpolationmode none
attr recordingmode vector(count)
attr source packetDropReasonIsIncorrectlyReceived(packetDropped)
attr title "packets dropped (checksum error), count"
vector 177 Topology.HVACUe[3].DSTT.phyLayer.interFrameGapInserter interpacketGap:vector ETV
attr interpolationmode sample-hold
attr recordingmode vector
attr source "count(interpacketGapStarted) - count(interpacketGapEnded)"
attr title "interpacket gap state"
attr type int
vector 178 Topology.HVACUe[3].DSTT.phyLayer.transmitter transmitting:vector ETV
attr interpolationmode sample-hold
attr recordingmode vector
attr source "count(transmissionStarted) - count(transmissionEnded)"
attr title "transmitting state"
attr type int
vector 179 Topology.HVACUe[4].udp passedUpPk:vector(count) ETV
attr interpolationmode none
attr recordingmode vector(count)
attr source packetSentToUpper
attr title "packets passed up, count"
vector 180 Topology.HVACUe[4].udp droppedPkWrongPort:vector(count) ETV
attr interpolationmode none
attr recordingmode vector(count)
attr source packetDropReasonIsNoPortFound(packetDropped)
attr title "packets dropped (wrong port), count"
vector 181 Topology.HVACUe[4].udp droppedPkBadChecksum:vector(count) ETV
attr interpolationmode none
attr recordingmode vector(count)
attr source packetDropReasonIsIncorrectlyReceived(packetDropped)
attr title "packets dropped (checksum error), count"
vector 182 Topology.HVACUe[4].DSTT.phyLayer.interFrameGapInserter interpacketGap:vector ETV
attr interpolationmode sample-hold
attr recordingmode vector
attr source "count(interpacketGapStarted) - count(interpacketGapEnded)"
attr title "interpacket gap state"
attr type int
vector 183 Topology.HVACUe[4].DSTT.phyLayer.transmitter transmitting:vector ETV
attr interpolationmode sample-hold
attr recordingmode vector
attr source "count(transmissionStarted) - count(transmissionEnded)"
attr title "transmitting state"
attr type int
vector 184 Topology.HVACUe[5].udp passedUpPk:vector(count) ETV
attr interpolationmode none
attr recordingmode vector(count)
attr source packetSentToUpper
attr title "packets passed up, count"
vector 185 Topology.HVACUe[5].udp droppedPkWrongPort:vector(count) ETV
attr interpolationmode none
attr recordingmode vector(count)
attr source packetDropReasonIsNoPortFound(packetDropped)
attr title "packets dropped (wrong port), count"
vector 186 Topology.HVACUe[5].udp droppedPkBadChecksum:vector(count) ETV
attr interpolationmode none
attr recordingmode vector(count)
attr source packetDropReasonIsIncorrectlyReceived(packetDropped)
attr title "packets dropped (checksum error), count"
vector 187 Topology.HVACUe[5].DSTT.phyLayer.interFrameGapInserter interpacketGap:vector ETV
attr interpolationmode sample-hold
attr recordingmode vector
attr source "count(interpacketGapStarted) - count(interpacketGapEnded)"
attr title "interpacket gap state"
attr type int
vector 188 Topology.HVACUe[5].DSTT.phyLayer.transmitter transmitting:vector ETV
attr interpolationmode sample-hold
attr recordingmode vector
attr source "count(transmissionStarted) - count(transmissionEnded)"
attr title "transmitting state"
attr type int
vector 189 Topology.HVACUe[6].udp passedUpPk:vector(count) ETV
attr interpolationmode none
attr recordingmode vector(count)
attr source packetSentToUpper
attr title "packets passed up, count"
vector 190 Topology.HVACUe[6].udp droppedPkWrongPort:vector(count) ETV
attr interpolationmode none
attr recordingmode vector(count)
attr source packetDropReasonIsNoPortFound(packetDropped)
attr title "packets dropped (wrong port), count"
vector 191 Topology.HVACUe[6].udp droppedPkBadChecksum:vector(count) ETV
attr interpolationmode none
attr recordingmode vector(count)
attr source packetDropReasonIsIncorrectlyReceived(packetDropped)
attr title "packets dropped (checksum error), count"
vector 192 Topology.HVACUe[6].DSTT.phyLayer.interFrameGapInserter interpacketGap:vector ETV
attr interpolationmode sample-hold
attr recordingmode vector
attr source "count(interpacketGapStarted) - count(interpacketGapEnded)"
attr title "interpacket gap state"
attr type int
vector 193 Topology.HVACUe[6].DSTT.phyLayer.transmitter transmitting:vector ETV
attr interpolationmode sample-hold
attr recordingmode vector
attr source "count(transmissionStarted) - count(transmissionEnded)"
attr title "transmitting state"
attr type int
vector 194 Topology.HVACUe[7].udp passedUpPk:vector(count) ETV
attr interpolationmode none
attr recordingmode vector(count)
attr source packetSentToUpper
attr title "packets passed up, count"
vector 195 Topology.HVACUe[7].udp droppedPkWrongPort:vector(count) ETV
attr interpolationmode none
attr recordingmode vector(count)
attr source packetDropReasonIsNoPortFound(packetDropped)
attr title "packets dropped (wrong port), count"
vector 196 Topology.HVACUe[7].udp droppedPkBadChecksum:vector(count) ETV
attr interpolationmode none
attr recordingmode vector(count)
attr source packetDropReasonIsIncorrectlyReceived(packetDropped)
attr title "packets dropped (checksum error), count"
vector 197 Topology.HVACUe[7].DSTT.phyLayer.interFrameGapInserter interpacketGap:vector ETV
attr interpolationmode sample-hold
attr recordingmode vector
attr source "count(interpacketGapStarted) - count(interpacketGapEnded)"
attr title "interpacket gap state"
attr type int
vector 198 Topology.HVACUe[7].DSTT.phyLayer.transmitter transmitting:vector ETV
attr interpolationmode sample-hold
attr recordingmode vector
attr source "count(transmissionStarted) - count(transmissionEnded)"
attr title "transmitting state"
attr type int
vector 199 Topology.BCClient[0].eth[0].phyLayer.interFrameGapInserter interpacketGap:vector ETV
attr interpolationmode sample-hold
attr recordingmode vector
attr source "count(interpacketGapStarted) - count(interpacketGapEnded)"
attr title "interpacket gap state"
attr type int
vector 200 Topology.BCClient[0].eth[0].phyLayer.transmitter transmitting:vector ETV
attr interpolationmode sample-hold
attr recordingmode vector
attr source "count(transmissionStarted) - count(transmissionEnded)"
attr title "transmitting state"
attr type int
vector 201 Topology.BCClient[0].udp passedUpPk:vector(count) ETV
attr interpolationmode none
attr recordingmode vector(count)
attr source packetSentToUpper
attr title "packets passed up, count"
vector 202 Topology.BCClient[0].udp droppedPkWrongPort:vector(count) ETV
attr interpolationmode none
attr recordingmode vector(count)
attr source packetDropReasonIsNoPortFound(packetDropped)
attr title "packets dropped (wrong port), count"
vector 203 Topology.BCClient[0].udp droppedPkBadChecksum:vector(count) ETV
attr interpolationmode none
attr recordingmode vector(count)
attr source packetDropReasonIsIncorrectlyReceived(packetDropped)
attr title "packets dropped (checksum error), count"
vector 204 Topology.BCClient[1].eth[0].phyLayer.interFrameGapInserter interpacketGap:vector ETV
attr interpolationmode sample-hold
attr recordingmode vector
attr source "count(interpacketGapStarted) - count(interpacketGapEnded)"
attr title "interpacket gap state"
attr type int
vector 205 Topology.BCClient[1].eth[0].phyLayer.transmitter transmitting:vector ETV
attr interpolationmode sample-hold
attr recordingmode vector
attr source "count(transmissionStarted) - count(transmissionEnded)"
attr title "transmitting state"
attr type int
vector 206 Topology.BCClient[1].udp passedUpPk:vector(count) ETV
attr interpolationmode none
attr recordingmode vector(count)
attr source packetSentToUpper
attr title "packets passed up, count"
vector 207 Topology.BCClient[1].udp droppedPkWrongPort:vector(count) ETV
attr interpolationmode none
attr recordingmode vector(count)
attr source packetDropReasonIsNoPortFound(packetDropped)
attr title "packets dropped (wrong port), count"
vector 208 Topology.BCClient[1].udp droppedPkBadChecksum:vector(count) ETV
attr interpolationmode none
attr recordingmode vector(count)
attr source packetDropReasonIsIncorrectlyReceived(packetDropped)
attr title "packets dropped (checksum error), count"
vector 209 Topology.BCClient[2].eth[0].phyLayer.interFrameGapInserter interpacketGap:vector ETV
attr interpolationmode sample-hold
attr recordingmode vector
attr source "count(interpacketGapStarted) - count(interpacketGapEnded)"
attr title "interpacket gap state"
attr type int
vector 210 Topology.BCClient[2].eth[0].phyLayer.transmitter transmitting:vector ETV
attr interpolationmode sample-hold
attr recordingmode vector
attr source "count(transmissionStarted) - count(transmissionEnded)"
attr title "transmitting state"
attr type int
vector 211 Topology.BCClient[2].udp passedUpPk:vector(count) ETV
attr interpolationmode none
attr recordingmode vector(count)
attr source packetSentToUpper
attr title "packets passed up, count"
vector 212 Topology.BCClient[2].udp droppedPkWrongPort:vector(count) ETV
attr interpolationmode none
attr recordingmode vector(count)
attr source packetDropReasonIsNoPortFound(packetDropped)
attr title "packets dropped (wrong port), count"
vector 213 Topology.BCClient[2].udp droppedPkBadChecksum:vector(count) ETV
attr interpolationmode none
attr recordingmode vector(count)
attr source packetDropReasonIsIncorrectlyReceived(packetDropped)
attr title "packets dropped (checksum error), count"
vector 214 Topology.BCClient[3].eth[0].phyLayer.interFrameGapInserter interpacketGap:vector ETV
attr interpolationmode sample-hold
attr recordingmode vector
attr source "count(interpacketGapStarted) - count(interpacketGapEnded)"
attr title "interpacket gap state"
attr type int
vector 215 Topology.BCClient[3].eth[0].phyLayer.transmitter transmitting:vector ETV
attr interpolationmode sample-hold
attr recordingmode vector
attr source "count(transmissionStarted) - count(transmissionEnded)"
attr title "transmitting state"
attr type int
vector 216 Topology.BCClient[3].udp passedUpPk:vector(count) ETV
attr interpolationmode none
attr recordingmode vector(count)
attr source packetSentToUpper
attr title "packets passed up, count"
vector 217 Topology.BCClient[3].udp droppedPkWrongPort:vector(count) ETV
attr interpolationmode none
attr recordingmode vector(count)
attr source packetDropReasonIsNoPortFound(packetDropped)
attr title "packets dropped (wrong port), count"
vector 218 Topology.BCClient[3].udp droppedPkBadChecksum:vector(count) ETV
attr interpolationmode none
attr recordingmode vector(count)
attr source packetDropReasonIsIncorrectlyReceived(packetDropped)
attr title "packets dropped (checksum error), count"
vector 219 Topology.BCClient[4].eth[0].phyLayer.interFrameGapInserter interpacketGap:vector ETV
attr interpolationmode sample-hold
attr recordingmode vector
attr source "count(interpacketGapStarted) - count(interpacketGapEnded)"
attr title "interpacket gap state"
attr type int
vector 220 Topology.BCClient[4].eth[0].phyLayer.transmitter transmitting:vector ETV
attr interpolationmode sample-hold
attr recordingmode vector
attr source "count(transmissionStarted) - count(transmissionEnded)"
attr title "transmitting state"
attr type int
vector 221 Topology.BCClient[4].udp passedUpPk:vector(count) ETV
attr interpolationmode none
attr recordingmode vector(count)
attr source packetSentToUpper
attr title "packets passed up, count"
vector 222 Topology.BCClient[4].udp droppedPkWrongPort:vector(count) ETV
attr interpolationmode none
attr recordingmode vector(count)
attr source packetDropReasonIsNoPortFound(packetDropped)
attr title "packets dropped (wrong port), count"
vector 223 Topology.BCClient[4].udp droppedPkBadChecksum:vector(count) ETV
attr interpolationmode none
attr recordingmode vector(count)
attr source packetDropReasonIsIncorrectlyReceived(packetDropped)
attr title "packets dropped (checksum error), count"
vector 224 Topology.BCClient[5].eth[0].phyLayer.interFrameGapInserter interpacketGap:vector ETV
attr interpolationmode sample-hold
attr recordingmode vector
attr source "count(interpacketGapStarted) - count(interpacketGapEnded)"
attr title "interpacket gap state"
attr type int
vector 225 Topology.BCClient[5].eth[0].phyLayer.transmitter transmitting:vector ETV
attr interpolationmode sample-hold
attr recordingmode vector
attr source "count(transmissionStarted) - count(transmissionEnded)"
attr title "transmitting state"
attr type int
vector 226 Topology.BCClient[5].udp passedUpPk:vector(count) ETV
attr interpolationmode none
attr recordingmode vector(count)
attr source packetSentToUpper
attr title "packets passed up, count"
vector 227 Topology.BCClient[5].udp droppedPkWrongPort:vector(count) ETV
attr interpolationmode none
attr recordingmode vector(count)
attr source packetDropReasonIsNoPortFound(packetDropped)
attr title "packets dropped (wrong port), count"
vector 228 Topology.BCClient[5].udp droppedPkBadChecksum:vector(count) ETV
attr interpolationmode none
attr recordingmode vector(count)
attr source packetDropReasonIsIncorrectlyReceived(packetDropped)
attr title "packets dropped (checksum error), count"
vector 229 Topology.BCClient[6].eth[0].phyLayer.interFrameGapInserter interpacketGap:vector ETV
attr interpolationmode sample-hold
attr recordingmode vector
attr source "count(interpacketGapStarted) - count(interpacketGapEnded)"
attr title "interpacket gap state"
attr type int
vector 230 Topology.BCClient[6].eth[0].phyLayer.transmitter transmitting:vector ETV
attr interpolationmode sample-hold
attr recordingmode vector
attr source "count(transmissionStarted) - count(transmissionEnded)"
attr title "transmitting state"
attr type int
vector 231 Topology.BCClient[6].udp passedUpPk:vector(count) ETV
attr interpolationmode none
attr recordingmode vector(count)
attr source packetSentToUpper
attr title "packets passed up, count"
vector 232 Topology.BCClient[6].udp droppedPkWrongPort:vector(count) ETV
attr interpolationmode none
attr recordingmode vector(count)
attr source packetDropReasonIsNoPortFound(packetDropped)
attr title "packets dropped (wrong port), count"
vector 233 Topology.BCClient[6].udp droppedPkBadChecksum:vector(count) ETV
attr interpolationmode none
attr recordingmode vector(count)
attr source packetDropReasonIsIncorrectlyReceived(packetDropped)
attr title "packets dropped (checksum error), count"
vector 234 Topology.BCClient[7].eth[0].phyLayer.interFrameGapInserter interpacketGap:vector ETV
attr interpolationmode sample-hold
attr recordingmode vector
attr source "count(interpacketGapStarted) - count(interpacketGapEnded)"
attr title "interpacket gap state"
attr type int
vector 235 Topology.BCClient[7].eth[0].phyLayer.transmitter transmitting:vector ETV
attr interpolationmode sample-hold
attr recordingmode vector
attr source "count(transmissionStarted) - count(transmissionEnded)"
attr title "transmitting state"
attr type int
vector 236 Topology.BCClient[7].udp passedUpPk:vector(count) ETV
attr interpolationmode none
attr recordingmode vector(count)
attr source packetSentToUpper
attr title "packets passed up, count"
vector 237 Topology.BCClient[7].udp droppedPkWrongPort:vector(count) ETV
attr interpolationmode none
attr recordingmode vector(count)
attr source packetDropReasonIsNoPortFound(packetDropped)
attr title "packets dropped (wrong port), count"
vector 238 Topology.BCClient[7].udp droppedPkBadChecksum:vector(count) ETV
attr interpolationmode none
attr recordingmode vector(count)
attr source packetDropReasonIsIncorrectlyReceived(packetDropped)
attr title "packets dropped (checksum error), count"
vector 239 Topology.BCUe[0].udp passedUpPk:vector(count) ETV
attr interpolationmode none
attr recordingmode vector(count)
attr source packetSentToUpper
attr title "packets passed up, count"
vector 240 Topology.BCUe[0].udp droppedPkWrongPort:vector(count) ETV
attr interpolationmode none
attr recordingmode vector(count)
attr source packetDropReasonIsNoPortFound(packetDropped)
attr title "packets dropped (wrong port), count"
vector 241 Topology.BCUe[0].udp droppedPkBadChecksum:vector(count) ETV
attr interpolationmode none
attr recordingmode vector(count)
attr source packetDropReasonIsIncorrectlyReceived(packetDropped)
attr title "packets dropped (checksum error), count"
vector 242 Topology.BCUe[0].DSTT.phyLayer.interFrameGapInserter interpacketGap:vector ETV
attr interpolationmode sample-hold
attr recordingmode vector
attr source "count(interpacketGapStarted) - count(interpacketGapEnded)"
attr title "interpacket gap state"
attr type int
vector 243 Topology.BCUe[0].DSTT.phyLayer.transmitter transmitting:vector ETV
attr interpolationmode sample-hold
attr recordingmode vector
attr source "count(transmissionStarted) - count(transmissionEnded)"
attr title "transmitting state"
attr type int
vector 244 Topology.BCUe[1].udp passedUpPk:vector(count) ETV
attr interpolationmode none
attr recordingmode vector(count)
attr source packetSentToUpper
attr title "packets passed up, count"
vector 245 Topology.BCUe[1].udp droppedPkWrongPort:vector(count) ETV
attr interpolationmode none
attr recordingmode vector(count)
attr source packetDropReasonIsNoPortFound(packetDropped)
attr title "packets dropped (wrong port), count"
vector 246 Topology.BCUe[1].udp droppedPkBadChecksum:vector(count) ETV
attr interpolationmode none
attr recordingmode vector(count)
attr source packetDropReasonIsIncorrectlyReceived(packetDropped)
attr title "packets dropped (checksum error), count"
vector 247 Topology.BCUe[1].DSTT.phyLayer.interFrameGapInserter interpacketGap:vector ETV
attr interpolationmode sample-hold
attr recordingmode vector
attr source "count(interpacketGapStarted) - count(interpacketGapEnded)"
attr title "interpacket gap state"
attr type int
vector 248 Topology.BCUe[1].DSTT.phyLayer.transmitter transmitting:vector ETV
attr interpolationmode sample-hold
attr recordingmode vector
attr source "count(transmissionStarted) - count(transmissionEnded)"
attr title "transmitting state"
attr type int
vector 249 Topology.BCUe[2].udp passedUpPk:vector(count) ETV
attr interpolationmode none
attr recordingmode vector(count)
attr source packetSentToUpper
attr title "packets passed up, count"
vector 250 Topology.BCUe[2].udp droppedPkWrongPort:vector(count) ETV
attr interpolationmode none
attr recordingmode vector(count)
attr source packetDropReasonIsNoPortFound(packetDropped)
attr title "packets dropped (wrong port), count"
vector 251 Topology.BCUe[2].udp droppedPkBadChecksum:vector(count) ETV
attr interpolationmode none
attr recordingmode vector(count)
attr source packetDropReasonIsIncorrectlyReceived(packetDropped)
attr title "packets dropped (checksum error), count"
vector 252 Topology.BCUe[2].DSTT.phyLayer.interFrameGapInserter interpacketGap:vector ETV
attr interpolationmode sample-hold
attr recordingmode vector
attr source "count(interpacketGapStarted) - count(interpacketGapEnded)"
attr title "interpacket gap state"
attr type int
vector 253 Topology.BCUe[2].DSTT.phyLayer.transmitter transmitting:vector ETV
attr interpolationmode sample-hold
attr recordingmode vector
attr source "count(transmissionStarted) - count(transmissionEnded)"
attr title "transmitting state"
attr type int
vector 254 Topology.BCUe[3].udp passedUpPk:vector(count) ETV
attr interpolationmode none
attr recordingmode vector(count)
attr source packetSentToUpper
attr title "packets passed up, count"
vector 255 Topology.BCUe[3].udp droppedPkWrongPort:vector(count) ETV
attr interpolationmode none
attr recordingmode vector(count)
attr source packetDropReasonIsNoPortFound(packetDropped)
attr title "packets dropped (wrong port), count"
vector 256 Topology.BCUe[3].udp droppedPkBadChecksum:vector(count) ETV
attr interpolationmode none
attr recordingmode vector(count)
attr source packetDropReasonIsIncorrectlyReceived(packetDropped)
attr title "packets dropped (checksum error), count"
vector 257 Topology.BCUe[3].DSTT.phyLayer.interFrameGapInserter interpacketGap:vector ETV
attr interpolationmode sample-hold
attr recordingmode vector
attr source "count(interpacketGapStarted) - count(interpacketGapEnded)"
attr title "interpacket gap state"
attr type int
vector 258 Topology.BCUe[3].DSTT.phyLayer.transmitter transmitting:vector ETV
attr interpolationmode sample-hold
attr recordingmode vector
attr source "count(transmissionStarted) - count(transmissionEnded)"
attr title "transmitting state"
attr type int
vector 259 Topology.BCUe[4].udp passedUpPk:vector(count) ETV
attr interpolationmode none
attr recordingmode vector(count)
attr source packetSentToUpper
attr title "packets passed up, count"
vector 260 Topology.BCUe[4].udp droppedPkWrongPort:vector(count) ETV
attr interpolationmode none
attr recordingmode vector(count)
attr source packetDropReasonIsNoPortFound(packetDropped)
attr title "packets dropped (wrong port), count"
vector 261 Topology.BCUe[4].udp droppedPkBadChecksum:vector(count) ETV
attr interpolationmode none
attr recordingmode vector(count)
attr source packetDropReasonIsIncorrectlyReceived(packetDropped)
attr title "packets dropped (checksum error), count"
vector 262 Topology.BCUe[4].DSTT.phyLayer.interFrameGapInserter interpacketGap:vector ETV
attr interpolationmode sample-hold
attr recordingmode vector
attr source "count(interpacketGapStarted) - count(interpacketGapEnded)"
attr title "interpacket gap state"
attr type int
vector 263 Topology.BCUe[4].DSTT.phyLayer.transmitter transmitting:vector ETV
attr interpolationmode sample-hold
attr recordingmode vector
attr source "count(transmissionStarted) - count(transmissionEnded)"
attr title "transmitting state"
attr type int
vector 264 Topology.BCUe[5].udp passedUpPk:vector(count) ETV
attr interpolationmode none
attr recordingmode vector(count)
attr source packetSentToUpper
attr title "packets passed up, count"
vector 265 Topology.BCUe[5].udp droppedPkWrongPort:vector(count) ETV
attr interpolationmode none
attr recordingmode vector(count)
attr source packetDropReasonIsNoPortFound(packetDropped)
attr title "packets dropped (wrong port), count"
vector 266 Topology.BCUe[5].udp droppedPkBadChecksum:vector(count) ETV
attr interpolationmode none
attr recordingmode vector(count)
attr source packetDropReasonIsIncorrectlyReceived(packetDropped)
attr title "packets dropped (checksum error), count"
vector 267 Topology.BCUe[5].DSTT.phyLayer.interFrameGapInserter interpacketGap:vector ETV
attr interpolationmode sample-hold
attr recordingmode vector
attr source "count(interpacketGapStarted) - count(interpacketGapEnded)"
attr title "interpacket gap state"
attr type int
vector 268 Topology.BCUe[5].DSTT.phyLayer.transmitter transmitting:vector ETV
attr interpolationmode sample-hold
attr recordingmode vector
attr source "count(transmissionStarted) - count(transmissionEnded)"
attr title "transmitting state"
attr type int
vector 269 Topology.BCUe[6].udp passedUpPk:vector(count) ETV
attr interpolationmode none
attr recordingmode vector(count)
attr source packetSentToUpper
attr title "packets passed up, count"
vector 270 Topology.BCUe[6].udp droppedPkWrongPort:vector(count) ETV
attr interpolationmode none
attr recordingmode vector(count)
attr source packetDropReasonIsNoPortFound(packetDropped)
attr title "packets dropped (wrong port), count"
vector 271 Topology.BCUe[6].udp droppedPkBadChecksum:vector(count) ETV
attr interpolationmode none
attr recordingmode vector(count)
attr source packetDropReasonIsIncorrectlyReceived(packetDropped)
attr title "packets dropped (checksum error), count"
vector 272 Topology.BCUe[6].DSTT.phyLayer.interFrameGapInserter interpacketGap:vector ETV
attr interpolationmode sample-hold
attr recordingmode vector
attr source "count(interpacketGapStarted) - count(interpacketGapEnded)"
attr title "interpacket gap state"
attr type int
vector 273 Topology.BCUe[6].DSTT.phyLayer.transmitter transmitting:vector ETV
attr interpolationmode sample-hold
attr recordingmode vector
attr source "count(transmissionStarted) - count(transmissionEnded)"
attr title "transmitting state"
attr type int
vector 274 Topology.BCUe[7].udp passedUpPk:vector(count) ETV
attr interpolationmode none
attr recordingmode vector(count)
attr source packetSentToUpper
attr title "packets passed up, count"
vector 275 Topology.BCUe[7].udp droppedPkWrongPort:vector(count) ETV
attr interpolationmode none
attr recordingmode vector(count)
attr source packetDropReasonIsNoPortFound(packetDropped)
attr title "packets dropped (wrong port), count"
vector 276 Topology.BCUe[7].udp droppedPkBadChecksum:vector(count) ETV
attr interpolationmode none
attr recordingmode vector(count)
attr source packetDropReasonIsIncorrectlyReceived(packetDropped)
attr title "packets dropped (checksum error), count"
vector 277 Topology.BCUe[7].DSTT.phyLayer.interFrameGapInserter interpacketGap:vector ETV
attr interpolationmode sample-hold
attr recordingmode vector
attr source "count(interpacketGapStarted) - count(interpacketGapEnded)"
attr title "interpacket gap state"
attr type int
vector 278 Topology.BCUe[7].DSTT.phyLayer.transmitter transmitting:vector ETV
attr interpolationmode sample-hold
attr recordingmode vector
attr source "count(transmissionStarted) - count(transmissionEnded)"
attr title "transmitting state"
attr type int
vector 279 Topology.TCUClient[0].eth[0].phyLayer.interFrameGapInserter interpacketGap:vector ETV
attr interpolationmode sample-hold
attr recordingmode vector
attr source "count(interpacketGapStarted) - count(interpacketGapEnded)"
attr title "interpacket gap state"
attr type int
vector 280 Topology.TCUClient[0].eth[0].phyLayer.transmitter transmitting:vector ETV
attr interpolationmode sample-hold
attr recordingmode vector
attr source "count(transmissionStarted) - count(transmissionEnded)"
attr title "transmitting state"
attr type int
vector 281 Topology.TCUClient[0].udp passedUpPk:vector(count) ETV
attr interpolationmode none
attr recordingmode vector(count)
attr source packetSentToUpper
attr title "packets passed up, count"
vector 282 Topology.TCUClient[0].udp droppedPkWrongPort:vector(count) ETV
attr interpolationmode none
attr recordingmode vector(count)
attr source packetDropReasonIsNoPortFound(packetDropped)
attr title "packets dropped (wrong port), count"
vector 283 Topology.TCUClient[0].udp droppedPkBadChecksum:vector(count) ETV
attr interpolationmode none
attr recordingmode vector(count)
attr source packetDropReasonIsIncorrectlyReceived(packetDropped)
attr title "packets dropped (checksum error), count"
vector 284 Topology.TCUClient[1].eth[0].phyLayer.interFrameGapInserter interpacketGap:vector ETV
attr interpolationmode sample-hold
attr recordingmode vector
attr source "count(interpacketGapStarted) - count(interpacketGapEnded)"
attr title "interpacket gap state"
attr type int
vector 285 Topology.TCUClient[1].eth[0].phyLayer.transmitter transmitting:vector ETV
attr interpolationmode sample-hold
attr recordingmode vector
attr source "count(transmissionStarted) - count(transmissionEnded)"
attr title "transmitting state"
attr type int
vector 286 Topology.TCUClient[1].udp passedUpPk:vector(count) ETV
attr interpolationmode none
attr recordingmode vector(count)
attr source packetSentToUpper
attr title "packets passed up, count"
vector 287 Topology.TCUClient[1].udp droppedPkWrongPort:vector(count) ETV
attr interpolationmode none
attr recordingmode vector(count)
attr source packetDropReasonIsNoPortFound(packetDropped)
attr title "packets dropped (wrong port), count"
vector 288 Topology.TCUClient[1].udp droppedPkBadChecksum:vector(count) ETV
attr interpolationmode none
attr recordingmode vector(count)
attr source packetDropReasonIsIncorrectlyReceived(packetDropped)
attr title "packets dropped (checksum error), count"
vector 289 Topology.TCUClient[2].eth[0].phyLayer.interFrameGapInserter interpacketGap:vector ETV
attr interpolationmode sample-hold
attr recordingmode vector
attr source "count(interpacketGapStarted) - count(interpacketGapEnded)"
attr title "interpacket gap state"
attr type int
[...]
2725	50224	0.09	0
2726	50224	0.09	0
2727	50224	0.09	0
2728	50224	0.09	0
2729	50224	0.09	0
2730	50224	0.09	0
2731	50224	0.09	0
2732	50224	0.09	0
2733	50224	0.09	0
2734	50224	0.09	0
2735	50224	0.09	0
2736	50224	0.09	0
2737	50224	0.09	0
2738	50224	0.09	0
2739	50224	0.09	0
2740	50224	0.09	3720888.8888889
2741	50224	0.09	0
2742	50224	0.09	0
2743	50224	0.09	0
2744	50224	0.09	0
2745	50224	0.09	0
2746	50224	0.09	0
2747	50224	0.09	0
2748	50224	0.09	0
2749	50224	0.09	0
2750	50224	0.09	0
2751	50224	0.09	0
2752	50224	0.09	0
2753	50224	0.09	0
2754	50224	0.09	0
2755	50224	0.09	0
2756	50224	0.09	3720888.8888889
2757	50224	0.09	0
2758	50224	0.09	0
2759	50224	0.09	0
2760	50224	0.09	0
2761	50224	0.09	0
2762	50224	0.09	0
2763	50224	0.09	0
2764	50224	0.09	0
2765	50224	0.09	0
2766	50224	0.09	0
2767	50224	0.09	0
2768	50224	0.09	0
2769	50224	0.09	0
2770	50224	0.09	0
2771	50224	0.09	0
2772	50224	0.09	3720888.8888889
2773	50224	0.09	0
2774	50224	0.09	0
2775	50224	0.09	0
2776	50224	0.09	0
2777	50224	0.09	0
2778	50224	0.09	0
2779	50224	0.09	0
2780	50224	0.09	0
2781	50224	0.09	0
2782	50224	0.09	0
2783	50224	0.09	0
2784	50224	0.09	0
2785	50224	0.09	0
2786	50224	0.09	0
2787	50224	0.09	0
2788	50224	0.09	0
2789	50224	0.09	0
2790	50224	0.09	0
2791	50224	0.09	0
2792	50224	0.09	0
2793	50224	0.09	0
2794	50224	0.09	0
2795	50224	0.09	0
2796	50224	0.09	0
2797	50224	0.09	0
2798	50224	0.09	0
2799	50224	0.09	0
2800	50224	0.09	0
2801	50224	0.09	0
2802	50224	0.09	0
2803	50224	0.09	0
2804	50224	0.09	0
2805	50224	0.09	0
2806	50224	0.09	0
2807	50224	0.09	0
2808	50224	0.09	0
2809	50224	0.09	0
2810	50224	0.09	0
2811	50224	0.09	0
2812	50224	0.09	0
2813	50224	0.09	0
2814	50224	0.09	0
2815	50224	0.09	0
2816	50224	0.09	0
2817	50224	0.09	0
2818	50224	0.09	0
2819	50224	0.09	0
2820	50224	0.09	0
2821	50224	0.09	0
2822	50224	0.09	0
2823	50224	0.09	0
2824	50224	0.09	0
2825	50224	0.09	0
2826	50224	0.09	0
2827	50224	0.09	0
2828	50224	0.09	0
2829	50224	0.09	0
2830	50224	0.09	0
2831	50224	0.09	0
2832	50224	0.09	0
2833	50224	0.09	0
2834	50224	0.09	0
2835	50224	0.09	0
2836	50224	0.09	0
2837	50224	0.09	0
2838	50224	0.09	0
2839	50224	0.09	0
2840	50224	0.09	0
2841	50224	0.09	0
2842	50224	0.09	0
2843	50224	0.09	0
2844	50224	0.09	0
2845	50224	0.09	0
2846	50224	0.09	0
2847	50224	0.09	0
2848	50224	0.09	0
2849	50224	0.09	0
2850	50224	0.09	0
2851	50224	0.09	0
2852	50224	0.09	3720888.8888889
2853	50224	0.09	0
2854	50224	0.09	0
2855	50224	0.09	0
2856	50224	0.09	0
2857	50224	0.09	0
2858	50224	0.09	0
2859	50224	0.09	0
2860	50224	0.09	0
2861	50224	0.09	0
2862	50224	0.09	0
2863	50224	0.09	0
2864	50224	0.09	0
2865	50224	0.09	0
2866	50224	0.09	0
2867	50224	0.09	0
2868	50224	0.09	3720888.8888889
2869	50224	0.09	0
2870	50224	0.09	0
2871	50224	0.09	0
2872	50224	0.09	0
2873	50224	0.09	0
2874	50224	0.09	0
2875	50224	0.09	0
2876	50224	0.09	0
2877	50224	0.09	0
2878	50224	0.09	0
2879	50224	0.09	0
2880	50224	0.09	0
2881	50224	0.09	0
2882	50224	0.09	0
2883	50224	0.09	0
2884	50224	0.09	3720888.8888889
2885	50224	0.09	0
2886	50224	0.09	0
2887	50224	0.09	0
2888	50224	0.09	0
2889	50224	0.09	0
2890	50224	0.09	0
2891	50224	0.09	0
2892	50224	0.09	0
2893	50224	0.09	0
2894	50224	0.09	0
2895	50224	0.09	0
2896	50224	0.09	0
2897	50224	0.09	0
2898	50224	0.09	0
2899	50224	0.09	0
2900	50224	0.09	3720888.8888889
2901	50224	0.09	0
2902	50224	0.09	0
2903	50224	0.09	0
2904	50224	0.09	0
2905	50224	0.09	0
2906	50224	0.09	0
2907	50224	0.09	0
2908	50224	0.09	0
2909	50224	0.09	0
2910	50224	0.09	0
2911	50224	0.09	0
2912	50224	0.09	0
2913	50224	0.09	0
2914	50224	0.09	0
2915	50224	0.09	0
2916	50224	0.09	3720888.8888889
2917	50224	0.09	0
2918	50224	0.09	0
2919	50224	0.09	0
2920	50224	0.09	0
2921	50224	0.09	0
2922	50224	0.09	0
2923	50224	0.09	0
2924	50224	0.09	0
2925	50224	0.09	0
2926	50224	0.09	0
2927	50224	0.09	0
2928	50224	0.09	0
2929	50224	0.09	0
2930	50224	0.09	0
2931	50224	0.09	0
2932	50224	0.09	3720888.8888889
2933	50224	0.09	0
2934	50224	0.09	0
2935	50224	0.09	0
2936	50224	0.09	0
2937	50224	0.09	0
2938	50224	0.09	0
2939	50224	0.09	0
2940	50224	0.09	0
2941	50224	0.09	0
2942	50224	0.09	0
2943	50224	0.09	0
2944	50224	0.09	0
2945	50224	0.09	0
2946	50224	0.09	0
2947	50224	0.09	0
2948	50224	0.09	3720888.8888889
2949	50224	0.09	0
2950	50224	0.09	0
2951	50224	0.09	0
2952	50224	0.09	0
2953	50224	0.09	0
2954	50224	0.09	0
2955	50224	0.09	0
2956	50224	0.09	0
2957	50224	0.09	0
2958	50224	0.09	0
2959	50224	0.09	0
2960	50224	0.09	0
2961	50224	0.09	0
2962	50224	0.09	0
2963	50224	0.09	0
2964	50224	0.09	3720888.8888889
2965	50224	0.09	0
2966	50224	0.09	0
2967	50224	0.09	0
2968	50224	0.09	0
2969	50224	0.09	0
2970	50224	0.09	0
2971	50224	0.09	0
2972	50224	0.09	0
2973	50224	0.09	0
2974	50224	0.09	0
2975	50224	0.09	0
2976	50224	0.09	0
2977	50224	0.09	0
2978	50224	0.09	0
2979	50224	0.09	0
2980	50224	0.09	0
2981	50224	0.09	0
2982	50224	0.09	0
2983	50224	0.09	0
2984	50224	0.09	0
2985	50224	0.09	0
2986	50224	0.09	0
2987	50224	0.09	0
2988	50224	0.09	0
2989	50224	0.09	0
2990	50224	0.09	0
2991	50224	0.09	0
2992	50224	0.09	0
2993	50224	0.09	0
2994	50224	0.09	0
2995	50224	0.09	0
2996	50224	0.09	0
2997	50224	0.09	0
2998	50224	0.09	0
2999	50224	0.09	0
3000	50224	0.09	0
3001	50224	0.09	0
3002	50224	0.09	0
3003	50224	0.09	0
3004	50224	0.09	0
3005	50224	0.09	0
3006	50224	0.09	0
3007	50224	0.09	0
3008	50224	0.09	0
3009	50224	0.09	0
3010	50224	0.09	0
3011	50224	0.09	0
3012	50224	0.09	0
3013	50224	0.09	0
3014	50224	0.09	0
3015	50224	0.09	0
3016	50224	0.09	0
3017	50224	0.09	0
3018	50224	0.09	0
3019	50224	0.09	0
3020	50224	0.09	0
3021	50224	0.09	0
3022	50224	0.09	0
3023	50224	0.09	0
3024	50224	0.09	0
3025	50224	0.09	0
3026	50224	0.09	0
3027	50224	0.09	0
3028	50224	0.09	0
3029	50224	0.09	0
3030	50224	0.09	0
3031	50224	0.09	0
3032	50224	0.09	0
3033	50224	0.09	0
3034	50224	0.09	0
3035	50224	0.09	0
3036	50224	0.09	0
3037	50224	0.09	0
3038	50224	0.09	0
3039	50224	0.09	0
3040	50224	0.09	0
3041	50224	0.09	0
3042	50224	0.09	0
3043	50224	0.09	0
3044	50224	0.09	3720888.8888889
3045	50224	0.09	0
3046	50224	0.09	0
3047	50224	0.09	0
3048	50224	0.09	0
3049	50224	0.09	0
3050	50224	0.09	0
3051	50224	0.09	0
3052	50224	0.09	0
3053	50224	0.09	0
3054	50224	0.09	0
3055	50224	0.09	0
3056	50224	0.09	0
3057	50224	0.09	0
3058	50224	0.09	0
3059	50224	0.09	0
3060	50224	0.09	3720888.8888889
3061	50224	0.09	0
3062	50224	0.09	0
3063	50224	0.09	0
3064	50224	0.09	0
3065	50224	0.09	0
3066	50224	0.09	0
3067	50224	0.09	0
3068	50224	0.09	0
3069	50224	0.09	0
3070	50224	0.09	0
3071	50224	0.09	0
3072	50224	0.09	0
3073	50224	0.09	0
3074	50224	0.09	0
3075	50224	0.09	0
3076	50224	0.09	3720888.8888889
3077	50224	0.09	0
3078	50224	0.09	0
3079	50224	0.09	0
3080	50224	0.09	0
3081	50224	0.09	0
3082	50224	0.09	0
3083	50224	0.09	0
3084	50224	0.09	0
3085	50224	0.09	0
3086	50224	0.09	0
3087	50224	0.09	0
3088	50224	0.09	0
3089	50224	0.09	0
3090	50224	0.09	0
3091	50224	0.09	0
3092	50224	0.09	3720888.8888889
3093	50224	0.09	0
3094	50224	0.09	0
3095	50224	0.09	0
3096	50224	0.09	0
3097	50224	0.09	0
3098	50224	0.09	0
3099	50224	0.09	0
3100	50224	0.09	0
3101	50224	0.09	0
3102	50224	0.09	0
3103	50224	0.09	0
3104	50224	0.09	0
3105	50224	0.09	0
3106	50224	0.09	0
3107	50224	0.09	0
3108	50224	0.09	3720888.8888889
3109	50224	0.09	0
3110	50224	0.09	0
3111	50224	0.09	0
3112	50224	0.09	0
3113	50224	0.09	0
3114	50224	0.09	0
3115	50224	0.09	0
3116	50224	0.09	0
3117	50224	0.09	0
3118	50224	0.09	0
3119	50224	0.09	0
3120	50224	0.09	0
3121	50224	0.09	0
3122	50224	0.09	0
3123	50224	0.09	0
3124	50224	0.09	3720888.8888889
3125	50224	0.09	0
3126	50224	0.09	0
3127	50224	0.09	0
3128	50224	0.09	0
3129	50224	0.09	0
3130	50224	0.09	0
3131	50224	0.09	0
3132	50224	0.09	0
3133	50224	0.09	0
3134	50224	0.09	0
3135	50224	0.09	0
3136	50224	0.09	0
3137	50224	0.09	0
3138	50224	0.09	0
3139	50224	0.09	0
3140	50224	0.09	3720888.8888889
3141	50224	0.09	0
3142	50224	0.09	0
3143	50224	0.09	0
3144	50224	0.09	0
3145	50224	0.09	0
3146	50224	0.09	0
3147	50224	0.09	0
3148	50224	0.09	0
3149	50224	0.09	0
3150	50224	0.09	0
3151	50224	0.09	0
3152	50224	0.09	0
3153	50224	0.09	0
3154	50224	0.09	0
3155	50224	0.09	0
3156	50224	0.09	3720888.8888889
3157	50224	0.09	0
3158	50224	0.09	0
3159	50224	0.09	0
3160	50224	0.09	0
3161	50224	0.09	0
3162	50224	0.09	0
3163	50224	0.09	0
3164	50224	0.09	0
3165	50224	0.09	0
3166	50224	0.09	0
3167	50224	0.09	0
3168	50224	0.09	0
3169	50224	0.09	0
3170	50224	0.09	0
3171	50224	0.09	0
3172	50224	0.09	0
3173	50224	0.09	0
3174	50224	0.09	0
3175	50224	0.09	0
3176	50224	0.09	0
3177	50224	0.09	0
3178	50224	0.09	0
3179	50224	0.09	0
3180	50224	0.09	0
3181	50224	0.09	0
3182	50224	0.09	0
3183	50224	0.09	0
3184	50224	0.09	0
3185	50224	0.09	0
3186	50224	0.09	0
3187	50224	0.09	0
3188	50224	0.09	0
3189	50224	0.09	0
3190	50224	0.09	0
3191	50224	0.09	0
3192	50224	0.09	0
3193	50224	0.09	0
3194	50224	0.09	0
3195	50224	0.09	0
3196	50224	0.09	0
3197	50224	0.09	0
3198	50224	0.09	0
3199	50224	0.09	0
3200	50224	0.09	0
3201	50224	0.09	0
3202	50224	0.09	0
3203	50224	0.09	0
3204	50224	0.09	0
3205	50224	0.09	0
3206	50224	0.09	0
3207	50224	0.09	0
3208	50224	0.09	0
3209	50224	0.09	0
3210	50224	0.09	0
3211	50224	0.09	0
3212	50224	0.09	0
3213	50224	0.09	0
3214	50224	0.09	0
3215	50224	0.09	0
3216	50224	0.09	0
3217	50224	0.09	0
3218	50224	0.09	0
3219	50224	0.09	0
3220	50224	0.09	0
3221	50224	0.09	0
3222	50224	0.09	0
3223	50224	0.09	0
3224	50224	0.09	0
3225	50224	0.09	0
3226	50224	0.09	0
3227	50224	0.09	0
3228	50224	0.09	0
3229	50224	0.09	0
3230	50224	0.09	0
3231	50224	0.09	0
3232	50224	0.09	0
3233	50224	0.09	0
3234	50224	0.09	0
3235	50224	0.09	0
3236	50224	0.09	3720888.8888889
3237	50224	0.09	0
3238	50224	0.09	0
3239	50224	0.09	0
3240	50224	0.09	0
3241	50224	0.09	0
3242	50224	0.09	0
3243	50224	0.09	0
3244	50224	0.09	0
3245	50224	0.09	0
3246	50224	0.09	0
3247	50224	0.09	0
3248	50224	0.09	0
3249	50224	0.09	0
3250	50224	0.09	0
3251	50224	0.09	0
3252	50224	0.09	3720888.8888889
3253	50224	0.09	0
3254	50224	0.09	0
3255	50224	0.09	0
3256	50224	0.09	0
3257	50224	0.09	0
3258	50224	0.09	0
3259	50224	0.09	0
3260	50224	0.09	0
3261	50224	0.09	0
3262	50224	0.09	0
3263	50224	0.09	0
3264	50224	0.09	0
3265	50224	0.09	0
3266	50224	0.09	0
3267	50224	0.09	0
3268	50224	0.09	3720888.8888889
3269	50224	0.09	0
3270	50224	0.09	0
3271	50224	0.09	0
3272	50224	0.09	0
3273	50224	0.09	0
3274	50224	0.09	0
3275	50224	0.09	0
3276	50224	0.09	0
3277	50224	0.09	0
3278	50224	0.09	0
3279	50224	0.09	0
3280	50224	0.09	0
3281	50224	0.09	0
3282	50224	0.09	0
3283	50224	0.09	0
3284	50224	0.09	3720888.8888889
3285	50224	0.09	0
3286	50224	0.09	0
3287	50224	0.09	0
3288	50224	0.09	0
3289	50224	0.09	0
3290	50224	0.09	0
3291	50224	0.09	0
3292	50224	0.09	0
3293	50224	0.09	0
3294	50224	0.09	0
3295	50224	0.09	0
3296	50224	0.09	0
3297	50224	0.09	0
3298	50224	0.09	0
3299	50224	0.09	0
3300	50224	0.09	3720888.8888889
3301	50224	0.09	0
3302	50224	0.09	0
3303	50224	0.09	0
3304	50224	0.09	0
3305	50224	0.09	0
3306	50224	0.09	0
3307	50224	0.09	0
3308	50224	0.09	0
3309	50224	0.09	0
3310	50224	0.09	0
3311	50224	0.09	0
3312	50224	0.09	0
3313	50224	0.09	0
3314	50224	0.09	0
3315	50224	0.09	0
3316	50224	0.09	3720888.8888889
3317	50224	0.09	0
3318	50224	0.09	0
3319	50224	0.09	0
3320	50224	0.09	0
3321	50224	0.09	0
3322	50224	0.09	0
3323	50224	0.09	0
3324	50224	0.09	0
3325	50224	0.09	0
3326	50224	0.09	0
3327	50224	0.09	0
3328	50224	0.09	0
3329	50224	0.09	0
3330	50224	0.09	0
3331	50224	0.09	0
3332	50224	0.09	3720888.8888889
3333	50224	0.09	0
3334	50224	0.09	0
3335	50224	0.09	0
3336	50224	0.09	0
3337	50224	0.09	0
3338	50224	0.09	0
3339	50224	0.09	0
3340	50224	0.09	0
3341	50224	0.09	0
3342	50224	0.09	0
3343	50224	0.09	0
3344	50224	0.09	0
3345	50224	0.09	0
3346	50224	0.09	0
3347	50224	0.09	0
3348	50224	0.09	3720888.8888889
3349	50224	0.09	0
3350	50224	0.09	0
3351	50224	0.09	0
3352	50224	0.09	0
3353	50224	0.09	0
3354	50224	0.09	0
3355	50224	0.09	0
3356	50224	0.09	0
3357	50224	0.09	0
3358	50224	0.09	0
3359	50224	0.09	0
3360	50224	0.09	0
3361	50224	0.09	0
3362	50224	0.09	0
3363	50224	0.09	0
3364	50224	0.09	0
3365	50224	0.09	0
3366	50224	0.09	0
3367	50224	0.09	0
3368	50224	0.09	0
3369	50224	0.09	0
3370	50224	0.09	0
3371	50224	0.09	0
3372	50224	0.09	0
3373	50224	0.09	0
3374	50224	0.09	0
3375	50224	0.09	0
3376	50224	0.09	0
3377	50224	0.09	0
3378	50224	0.09	0
3379	50224	0.09	0
3380	50224	0.09	0
3381	50224	0.09	0
3382	50224	0.09	0
3383	50224	0.09	0
3384	50224	0.09	0
3385	50224	0.09	0
3386	50224	0.09	0
3387	50224	0.09	0
3388	50224	0.09	0
3389	50224	0.09	0
3390	50224	0.09	0
3391	50224	0.09	0
3392	50224	0.09	0
3393	50224	0.09	0
3394	50224	0.09	0
3395	50224	0.09	0
3396	50224	0.09	0
3397	50224	0.09	0
3398	50224	0.09	0
3399	50224	0.09	0
3400	50224	0.09	0
3401	50224	0.09	0
3402	50224	0.09	0
3403	50224	0.09	0
3404	50224	0.09	0
3405	50224	0.09	0
3406	50224	0.09	0
3407	50224	0.09	0
3408	50224	0.09	0
3409	50224	0.09	0
3410	50224	0.09	0
3411	50224	0.09	0
3412	50224	0.09	0
3413	50224	0.09	0
3414	50224	0.09	0
3415	50224	0.09	0
3416	50224	0.09	0
3417	50224	0.09	0
3418	50224	0.09	0
3419	50224	0.09	0
3420	50224	0.09	0
3421	50224	0.09	0
3422	50224	0.09	0
3423	50224	0.09	0
3424	50224	0.09	0
3425	50224	0.09	0
3426	50224	0.09	0
3427	50224	0.09	0
3428	50224	0.09	3720888.8888889
3429	50224	0.09	0
3430	50224	0.09	0
3431	50224	0.09	0
3432	50224	0.09	0
3433	50224	0.09	0
3434	50224	0.09	0
3435	50224	0.09	0
3436	50224	0.09	0
3437	50224	0.09	0
3438	50224	0.09	0
3439	50224	0.09	0
3440	50224	0.09	0
3441	50224	0.09	0
3442	50224	0.09	0
3443	50224	0.09	0
3444	50224	0.09	3720888.8888889
3445	50224	0.09	0
3446	50224	0.09	0
3447	50224	0.09	0
3448	50224	0.09	0
3449	50224	0.09	0
3450	50224	0.09	0
3451	50224	0.09	0
3452	50224	0.09	0
3453	50224	0.09	0
3454	50224	0.09	0
3455	50224	0.09	0
3456	50224	0.09	0
3457	50224	0.09	0
3458	50224	0.09	0
3459	50224	0.09	0
3460	50224	0.09	3720888.8888889
3461	50224	0.09	0
3462	50224	0.09	0
3463	50224	0.09	0
3464	50224	0.09	0
3465	50224	0.09	0
3466	50224	0.09	0
3467	50224	0.09	0
3468	50224	0.09	0
3469	50224	0.09	0
3470	50224	0.09	0
3471	50224	0.09	0
3472	50224	0.09	0
3473	50224	0.09	0
3474	50224	0.09	0
3475	50224	0.09	0
3476	50224	0.09	3720888.8888889
3477	50224	0.09	0
3478	50224	0.09	0
3479	50224	0.09	0
3480	50224	0.09	0
3481	50224	0.09	0
3482	50224	0.09	0
3483	50224	0.09	0
3484	50224	0.09	0
3485	50224	0.09	0
3486	50224	0.09	0
3487	50224	0.09	0
3488	50224	0.09	0
3489	50224	0.09	0
3490	50224	0.09	0
3491	50224	0.09	0
3492	50224	0.09	3720888.8888889
3493	50224	0.09	0
3494	50224	0.09	0
3495	50224	0.09	0
3496	50224	0.09	0
3497	50224	0.09	0
3498	50224	0.09	0
3499	50224	0.09	0
3500	50224	0.09	0
3501	50224	0.09	0
3502	50224	0.09	0
3503	50224	0.09	0
3504	50224	0.09	0
3505	50224	0.09	0
3506	50224	0.09	0
3507	50224	0.09	0
3508	50224	0.09	3720888.8888889
3509	50224	0.09	0
3510	50224	0.09	0
3511	50224	0.09	0
3512	50224	0.09	0
3513	50224	0.09	0
3514	50224	0.09	0
3515	50224	0.09	0
3516	50224	0.09	0
3517	50224	0.09	0
3518	50224	0.09	0
3519	50224	0.09	0
3520	50224	0.09	0
3521	50224	0.09	0
3522	50224	0.09	0
3523	50224	0.09	0
3524	50224	0.09	3720888.8888889
3525	50224	0.09	0
3526	50224	0.09	0
3527	50224	0.09	0
3528	50224	0.09	0
3529	50224	0.09	0
3530	50224	0.09	0
3531	50224	0.09	0
3532	50224	0.09	0
3533	50224	0.09	0
3534	50224	0.09	0
3535	50224	0.09	0
3536	50224	0.09	0
3537	50224	0.09	0
3538	50224	0.09	0
3539	50224	0.09	0
3540	50224	0.09	3720888.8888889
3541	50224	0.09	0
3542	50224	0.09	0
3543	50224	0.09	0
3544	50224	0.09	0
3545	50224	0.09	0
3546	50224	0.09	0
3547	50224	0.09	0
3548	50224	0.09	0
3549	50224	0.09	0
3550	50224	0.09	0
3551	50224	0.09	0
3552	50224	0.09	0
3553	50224	0.09	0
3554	50224	0.09	0
3555	50224	0.09	0
3556	50224	0.09	0
3557	50224	0.09	0
3558	50224	0.09	0
3559	50224	0.09	0
3560	50224	0.09	0
3561	50224	0.09	0
3562	50224	0.09	0
3563	50224	0.09	0
3564	50224	0.09	0
3565	50224	0.09	0
3566	50224	0.09	0
3567	50224	0.09	0
3568	50224	0.09	0
3569	50224	0.09	0
3570	50224	0.09	0
3571	50224	0.09	0
3572	50224	0.09	0
3573	50224	0.09	0
3574	50224	0.09	0
3575	50224	0.09	0
3576	50224	0.09	0
3577	50224	0.09	0
3578	50224	0.09	0
3579	50224	0.09	0
3580	50224	0.09	0
3581	50224	0.09	0
3582	50224	0.09	0
3583	50224	0.09	0
3584	50224	0.09	0
3585	50224	0.09	0
3586	50224	0.09	0
3587	50224	0.09	0
3588	50224	0.09	0
3589	50224	0.09	0
3590	50224	0.09	0
3591	50224	0.09	0
3592	50224	0.09	0
3593	50224	0.09	0
3594	50224	0.09	0
3595	50224	0.09	0
3596	50224	0.09	0
3597	50224	0.09	0
3598	50224	0.09	0
3599	50224	0.09	0
3600	50224	0.09	0
3601	50224	0.09	0
3602	50224	0.09	0
3603	50224	0.09	0
3604	50224	0.09	0
3605	50224	0.09	0
3606	50224	0.09	0
3607	50224	0.09	0
3608	50224	0.09	0
3609	50224	0.09	0
3610	50224	0.09	0
3611	50224	0.09	0
3612	50224	0.09	0
3613	50224	0.09	0
3614	50224	0.09	0
3615	50224	0.09	0
3616	50224	0.09	0
3617	50224	0.09	0
3618	50224	0.09	0
3619	50224	0.09	0
3620	50224	0.09	3720888.8888889
3621	50224	0.09	0
3622	50224	0.09	0
3623	50224	0.09	0
3624	50224	0.09	0
3625	50224	0.09	0
3626	50224	0.09	0
3627	50224	0.09	0
3628	50224	0.09	0
3629	50224	0.09	0
3630	50224	0.09	0
3631	50224	0.09	0
3632	50224	0.09	0
3633	50224	0.09	0
3634	50224	0.09	0
3635	50224	0.09	0
3636	50224	0.09	3720888.8888889
3637	50224	0.09	0
3638	50224	0.09	0
3639	50224	0.09	0
3640	50224	0.09	0
3641	50224	0.09	0
3642	50224	0.09	0
3643	50224	0.09	0
3644	50224	0.09	0
3645	50224	0.09	0
3646	50224	0.09	0
3647	50224	0.09	0
3648	50224	0.09	0
3649	50224	0.09	0
3650	50224	0.09	0
3651	50224	0.09	0
3652	50224	0.09	3720888.8888889
3653	50224	0.09	0
3654	50224	0.09	0
3655	50224	0.09	0
3656	50224	0.09	0
3657	50224	0.09	0
3658	50224	0.09	0
3659	50224	0.09	0
3660	50224	0.09	0
3661	50224	0.09	0
3662	50224	0.09	0
3663	50224	0.09	0
3664	50224	0.09	0
3665	50224	0.09	0
3666	50224	0.09	0
3667	50224	0.09	0
3668	50224	0.09	3720888.8888889
3669	50224	0.09	0
3670	50224	0.09	0
3671	50224	0.09	0
3672	50224	0.09	0
3673	50224	0.09	0
3674	50224	0.09	0
3675	50224	0.09	0
3676	50224	0.09	0
3677	50224	0.09	0
3678	50224	0.09	0
3679	50224	0.09	0
3680	50224	0.09	0
3681	50224	0.09	0
3682	50224	0.09	0
3683	50224	0.09	0
3684	50224	0.09	3720888.8888889
3685	50224	0.09	0
3686	50224	0.09	0
3687	50224	0.09	0
3688	50224	0.09	0
3689	50224	0.09	0
3690	50224	0.09	0
3691	50224	0.09	0
3692	50224	0.09	0
3693	50224	0.09	0
3694	50224	0.09	0
3695	50224	0.09	0
3696	50224	0.09	0
3697	50224	0.09	0
3698	50224	0.09	0
3699	50224	0.09	0
3700	50224	0.09	3720888.8888889
3701	50224	0.09	0
3702	50224	0.09	0
3703	50224	0.09	0
3704	50224	0.09	0
3705	50224	0.09	0
3706	50224	0.09	0
3707	50224	0.09	0
3708	50224	0.09	0
3709	50224	0.09	0
3710	50224	0.09	0
3711	50224	0.09	0
3712	50224	0.09	0
3713	50224	0.09	0
3714	50224	0.09	0
3715	50224	0.09	0
3716	50224	0.09	3720888.8888889
3717	50224	0.09	0
3718	50224	0.09	0
3719	50224	0.09	0
3720	50224	0.09	0
3721	50224	0.09	0
3722	50224	0.09	0
3723	50224	0.09	0
3724	50224	0.09	0
3725	50224	0.09	0
3726	50224	0.09	0
3727	50224	0.09	0
3728	50224	0.09	0
3729	50224	0.09	0
3730	50224	0.09	0
3731	50224	0.09	0
3732	50224	0.09	3720888.8888889
3733	50224	0.09	0
3734	50224	0.09	0
3735	50224	0.09	0
3736	50224	0.09	0
3737	50224	0.09	0
3738	50224	0.09	0
3739	50224	0.09	0
3740	50224	0.09	0
3741	50224	0.09	0
3742	50224	0.09	0
3743	50224	0.09	0
3744	50224	0.09	0
3745	50224	0.09	0
3746	50224	0.09	0
3747	50224	0.09	0
3748	50224	0.09	0
3749	50224	0.09	0
3750	50224	0.09	0
3751	50224	0.09	0
3752	50224	0.09	0
3753	50224	0.09	0
3754	50224	0.09	0
3755	50224	0.09	0
3756	50224	0.09	0
3757	50224	0.09	0
3758	50224	0.09	0
3759	50224	0.09	0
3760	50224	0.09	0
3761	50224	0.09	0
3762	50224	0.09	0
3763	50224	0.09	0
3764	50224	0.09	0
3765	50224	0.09	0
3766	50224	0.09	0
3767	50224	0.09	0
3768	50224	0.09	0
3769	50224	0.09	0
3770	50224	0.09	0
3771	50224	0.09	0
3772	50224	0.09	0
3773	50224	0.09	0
3774	50224	0.09	0
3775	50224	0.09	0
3776	50224	0.09	0
3777	50224	0.09	0
3778	50224	0.09	0
3779	50224	0.09	0
3780	50224	0.09	0
3781	50224	0.09	0
3782	50224	0.09	0
3783	50224	0.09	0
3784	50224	0.09	0
3785	50224	0.09	0
3786	50224	0.09	0
3787	50224	0.09	0
3788	50224	0.09	0
3789	50224	0.09	0
3790	50224	0.09	0
3791	50224	0.09	0
3792	50224	0.09	0
3793	50224	0.09	0
3794	50224	0.09	0
3795	50224	0.09	0
3796	50224	0.09	0
3797	50224	0.09	0
3798	50224	0.09	0
3799	50224	0.09	0
3800	50224	0.09	0

