file 2415832 1734321436                                         
version 3
run config1-0-20241216-04:57:06-6753
attr configname config1
attr datetime 20241216-04:57:06
attr datetimef 20241216-045706
attr experiment config1
attr inifile omnetpp.ini
attr iterationvars ""
attr iterationvarsd ""
attr iterationvarsf ""
attr measurement ""
attr network Topology
attr processid 6753
attr repetition 0
attr replication #0
attr resultdir results
attr runnumber 0
attr seedset 0
config image-path ../../simu5G/images:../../inet4.5/images
config extends General
config *.switch1.macTable.forwardingTable "[{address:\"0A-AA-00-00-00-01\", interface:\"eth1\"}, {address:\"0A-AA-00-00-00-1D\", interface:\"eth0\"}]"
config *.switch2.macTable.forwardingTable "[{address:\"0A-AA-00-00-00-01\", interface:\"eth1\"}, {address:\"0A-AA-00-00-00-1E\", interface:\"eth0\"}]"
config *.switch3.macTable.forwardingTable "[{address:\"0A-AA-00-00-00-01\", interface:\"eth1\"},{address:\"0A-AA-00-00-00-23\", interface:\"eth0\"}]"
config *.switch4.macTable.forwardingTable "[{address:\"0A-AA-00-00-00-01\", interface:\"eth1\"},{address:\"0A-AA-00-00-00-24\", interface:\"eth0\"}]"
config *.switch5.macTable.forwardingTable "[{address:\"0A-AA-00-00-00-01\", interface:\"eth2\"},{address:\"0A-AA-00-00-00-1D\", interface:\"eth0\"},{address:\"0A-AA-00-00-00-1E\", interface:\"eth1\"}]"
config *.switch6.macTable.forwardingTable "[{address:\"0A-AA-00-00-00-01\", interface:\"eth2\"},{address:\"0A-AA-00-00-00-23\", interface:\"eth0\"},{address:\"0A-AA-00-00-00-24\", interface:\"eth1\"}]"
config *.switch7.macTable.forwardingTable "[{address:\"0A-AA-00-00-00-01\", interface:\"eth2\"},{address:\"0A-AA-00-00-00-1D\", interface:\"eth0\"},{address:\"0A-AA-00-00-00-1E\", interface:\"eth0\"}\n\t\t\t\t\t\t\t\t\t\t,{address:\"0A-AA-00-00-00-23\", interface:\"eth1\"},{address:\"0A-AA-00-00-00-24\", interface:\"eth1\"}]"
config *.server.app[*].source.packetNameFormat "\"%m-%e\""
config *.server.app[*].source.initialProductionOffset 10ms
config network Topology
config *.server.ipv4.routingTable.routingFile "\"server.mrt\""
config **.ipv4.arp.typename GlobalArp
config *.*Ue[*].DSTT.DSTT.destAddress "\"server\""
config **.selector.filePath "\"/home/simu5g/simu5g-workspace/test/exp1/path.txt\""
config **.mobility.constraintAreaMaxX 1200m
config **.mobility.constraintAreaMaxY 1000m
config **.mobility.constraintAreaMinX 0m
config **.mobility.constraintAreaMinY 0m
config **.mobility.constraintAreaMinZ 0m
config **.mobility.constraintAreaMaxZ 0m
config **.mobility.initFromDisplayString false
config *.gnb*1.mobility.initialX 500m
config *.gnb*2.mobility.initialX 700m
config *.gnb*3.mobility.initialX 900m
config *.gnb*4.mobility.initialX 1100m
config *.gnbL1.mobility.initialY 400m
config *.gnbL2.mobility.initialY 400m
config *.gnbL3.mobility.initialY 350m
config *.gnbL4.mobility.initialY 350m
config *.gnbR1.mobility.initialY 350m
config *.gnbR2.mobility.initialY 350m
config *.gnbR3.mobility.initialY 400m
config *.gnbR4.mobility.initialY 400m
config *.*Ue[*].mobility.initialY 450m
config *.*Ue[0].mobility.initialX 450m
config *.*Ue[1].mobility.initialX 550m
config *.*Ue[2].mobility.initialX 650m
config *.*Ue[3].mobility.initialX 750m
config *.*Ue[4].mobility.initialX 850m
config *.*Ue[5].mobility.initialX 950m
config *.*Ue[6].mobility.initialX 1050m
config *.*Ue[7].mobility.initialX 1150m
config *.*Ue[*].macCellId 0
config *.*Ue[*].masterId 0
config *.*Ue[*].nrMacCellId 1
config *.*Ue[*].nrMasterId 1
config **.dynamicCellAssociation true
config **.enableHandover true
config *.carrierAggregation.numComponentCarriers 1
config *.carrierAggregation.componentCarrier[0].carrierFrequency 2GHz
config *.carrierAggregation.componentCarrier[0].numBands 6
config *.gnb*.cellularNic.numCarriers 1
config *.gnb.cellularNic.channelModel[0].componentCarrierIndex 0
config *.*Ue[*].cellularNic.numNRCarriers 1
config *.*Ue[*].cellularNic.nrChannelModel[0].componentCarrierIndex 0
config *.*.hasOutgoingStreams true
config *.*Client*.bridging.streamIdentifier.identifier.mapping "[{stream: \"besteffort\", packetFilter: expr(has(udp) && (udp.destPort == 1000 || udp.destPort == 1002))},\n\t\t\t\t\t\t\t\t\t\t\t\t\t\t\t{stream: \"video\", packetFilter: expr(has(udp) && udp.destPort == 1001 )}]"
config *.*Client*.bridging.streamCoder.encoder.mapping "[{stream: \"besteffort\", pcp: 0},\n\t\t\t\t\t\t\t\t\t\t\t\t\t{stream: \"video\", pcp: 4}]"
config *.server.bridging.streamIdentifier.identifier.mapping "[{stream: \"besteffort\", packetFilter: expr(has(udp) && (udp.destPort == 1000 || udp.destPort == 1002))},\n\t\t\t\t\t\t\t\t\t\t\t\t\t\t\t{stream: \"video\", packetFilter: expr(has(udp) && udp.destPort == 1001)}]"
config *.server.bridging.streamCoder.encoder.mapping "[{stream: \"besteffort\", pcp: 0},\n\t\t\t\t\t\t\t\t\t\t\t\t\t{stream: \"video\", pcp: 4}]"
config *.switch*.bridging.streamIdentifier.identifier.mapping "[{stream: \"besteffort\", packetFilter: expr(has(udp) && (udp.destPort == 1000 || udp.destPort == 1002))},\n\t\t\t\t\t\t\t\t\t\t\t\t\t\t\t{stream: \"video\", packetFilter: expr(has(udp) && udp.destPort == 1001)}]"
config *.switch*.bridging.streamCoder.encoder.mapping "[{stream: \"besteffort\", pcp: 0},\n\t\t\t\t\t\t\t\t\t\t\t\t\t{stream: \"video\", pcp: 4}]"
config *.switch*.bridging.streamCoder.decoder.mapping "[{pcp: 0, stream: \"besteffort\"},\n                                                 {pcp: 4, stream: \"video\"}]"
config *.switch*.hasEgressTrafficShaping true
config *.switch*.bridging.directionReverser.reverser.excludeEncapsulationProtocols "[\"ieee8021qctag\"]"
config *.switch*.eth[*].macLayer.queue.numTrafficClasses 2
config *.switch*.eth[*].macLayer.queue.*[0].display-name besteffort
config *.switch*.eth[*].macLayer.queue.*[1].display-name video
config *.*.DSTT.DSTT.destPort "intuniform(1000, 1500)"
config *.*Client*.numApps 3
config *.*Client*.app[0].typename UdpSourceApp
config *.*Client*.app[0].display-name besteffort
config *.*Client*.app[0].io.destAddress "\"server\""
config *.*Client*.app[0].io.destPort 1000
config *.*Client*.app[0].io.localPort 1000
config *.*Client*.app[0].source.packetLength 460B
config *.*Client*.app[0].source.productionInterval 1ms
config *.*Client*.app[0].source.initialProductionOffset 0s
config *.HVACClient*.app[0].source.packetLength 36B
config *.HVACClient*.app[0].source.productionInterval 200ms
config *.DCUClient*.app[0].source.packetLength 42B
config *.DCUClient*.app[0].source.productionInterval 500ms
config *.BCClient*.app[0].source.packetLength 102B
config *.BCClient*.app[0].source.productionInterval 200ms
config *.BCUClient*.app[0].source.packetLength 46B
config *.BCUClient*.app[0].source.productionInterval 10ms
config *.TCUClient*.app[0].source.packetLength 77B
config *.TCUClient*.app[0].source.productionInterval 10ms
config *.*Client*.app[1].typename UdpSinkApp
config *.*Client*.app[1].display-name video
config *.*Client*.app[1].io.localPort 1001
config *.*Client*.app[2].typename UdpSinkApp
config *.*Client*.app[2].display-name besteffort
config *.*Client*.app[2].io.localPort 1002
config *.server.numApps 41
config *.server.app[*].io.localPort 1000+ancestorIndex(1)
config *.server.app[0].typename UdpSinkApp
config *.server.app[0].display-name besteffort
config *.server.app[1..40].typename UdpSourceApp
config *.server.app[1..16].io.destPort 1001
config *.server.app[17..40].io.destPort 1002
config *.server.app[1].io.destAddress "\"BCUClient[0]\""
config *.server.app[2].io.destAddress "\"BCUClient[1]\""
config *.server.app[3].io.destAddress "\"BCUClient[2]\""
config *.server.app[4].io.destAddress "\"BCUClient[3]\""
config *.server.app[5].io.destAddress "\"BCUClient[4]\""
config *.server.app[6].io.destAddress "\"BCUClient[5]\""
config *.server.app[7].io.destAddress "\"BCUClient[6]\""
config *.server.app[8].io.destAddress "\"BCUClient[7]\""
config *.server.app[9].io.destAddress "\"TCUClient[0]\""
config *.server.app[10].io.destAddress "\"TCUClient[1]\""
config *.server.app[11].io.destAddress "\"TCUClient[2]\""
config *.server.app[12].io.destAddress "\"TCUClient[3]\""
config *.server.app[13].io.destAddress "\"TCUClient[4]\""
config *.server.app[14].io.destAddress "\"TCUClient[5]\""
config *.server.app[15].io.destAddress "\"TCUClient[6]\""
config *.server.app[16].io.destAddress "\"TCUClient[7]\""
config *.server.app[17].io.destAddress "\"BCClient[0]\""
config *.server.app[18].io.destAddress "\"BCClient[1]\""
config *.server.app[19].io.destAddress "\"BCClient[2]\""
config *.server.app[20].io.destAddress "\"BCClient[3]\""
config *.server.app[21].io.destAddress "\"BCClient[4]\""
config *.server.app[22].io.destAddress "\"BCClient[5]\""
config *.server.app[23].io.destAddress "\"BCClient[6]\""
config *.server.app[24].io.destAddress "\"BCClient[7]\""
config *.server.app[25].io.destAddress "\"HVACClient[0]\""
config *.server.app[26].io.destAddress "\"HVACClient[1]\""
config *.server.app[27].io.destAddress "\"HVACClient[2]\""
config *.server.app[28].io.destAddress "\"HVACClient[3]\""
config *.server.app[29].io.destAddress "\"HVACClient[4]\""
config *.server.app[30].io.destAddress "\"HVACClient[5]\""
config *.server.app[31].io.destAddress "\"HVACClient[6]\""
config *.server.app[32].io.destAddress "\"HVACClient[7]\""
config *.server.app[33].io.destAddress "\"DCUClient[0]\""
config *.server.app[34].io.destAddress "\"DCUClient[1]\""
config *.server.app[35].io.destAddress "\"DCUClient[2]\""
config *.server.app[36].io.destAddress "\"DCUClient[3]\""
config *.server.app[37].io.destAddress "\"DCUClient[4]\""
config *.server.app[38].io.destAddress "\"DCUClient[5]\""
config *.server.app[39].io.destAddress "\"DCUClient[6]\""
config *.server.app[40].io.destAddress "\"DCUClient[7]\""
config *.server.app[1..8].display-name BCUServer
config *.server.app[1..8].source.packetLength 24B
config *.server.app[1..8].source.productionInterval 10ms
config *.server.app[9..16].display-name TCUServer
config *.server.app[9..16].source.packetLength 40B
config *.server.app[9..16].source.productionInterval 10ms
config *.server.app[17..24].display-name BCServer
config *.server.app[17..24].source.packetLength 24B
config *.server.app[17..24].source.productionInterval 200ms
config *.server.app[25..32].display-name HVACServer
config *.server.app[25..32].source.packetLength 16B
config *.server.app[25..32].source.productionInterval 200ms
config *.server.app[33..40].display-name DCUServer
config *.server.app[33..40].source.packetLength 20B
config *.server.app[33..40].source.productionInterval 500ms

vector 0 Topology.server.eth[0].phyLayer.interFrameGapInserter interpacketGap:vector ETV
attr interpolationmode sample-hold
attr recordingmode vector
attr source "count(interpacketGapStarted) - count(interpacketGapEnded)"
attr title "interpacket gap state"
attr type int
vector 1 Topology.server.eth[0].phyLayer.transmitter transmitting:vector ETV
attr interpolationmode sample-hold
attr recordingmode vector
attr source "count(transmissionStarted) - count(transmissionEnded)"
attr title "transmitting state"
attr type int
vector 2 Topology.server.udp passedUpPk:vector(count) ETV
attr interpolationmode none
attr recordingmode vector(count)
attr source packetSentToUpper
attr title "packets passed up, count"
vector 3 Topology.server.udp droppedPkWrongPort:vector(count) ETV
attr interpolationmode none
attr recordingmode vector(count)
attr source packetDropReasonIsNoPortFound(packetDropped)
attr title "packets dropped (wrong port), count"
vector 4 Topology.server.udp droppedPkBadChecksum:vector(count) ETV
attr interpolationmode none
attr recordingmode vector(count)
attr source packetDropReasonIsIncorrectlyReceived(packetDropped)
attr title "packets dropped (checksum error), count"
vector 5 Topology.switch1.eth[0].phyLayer.interFrameGapInserter interpacketGap:vector ETV
attr interpolationmode sample-hold
attr recordingmode vector
attr source "count(interpacketGapStarted) - count(interpacketGapEnded)"
attr title "interpacket gap state"
attr type int
vector 6 Topology.switch1.eth[0].phyLayer.transmitter transmitting:vector ETV
attr interpolationmode sample-hold
attr recordingmode vector
attr source "count(transmissionStarted) - count(transmissionEnded)"
attr title "transmitting state"
attr type int
vector 7 Topology.switch1.eth[1].phyLayer.interFrameGapInserter interpacketGap:vector ETV
attr interpolationmode sample-hold
attr recordingmode vector
attr source "count(interpacketGapStarted) - count(interpacketGapEnded)"
attr title "interpacket gap state"
attr type int
vector 8 Topology.switch1.eth[1].phyLayer.transmitter transmitting:vector ETV
attr interpolationmode sample-hold
attr recordingmode vector
attr source "count(transmissionStarted) - count(transmissionEnded)"
attr title "transmitting state"
attr type int
vector 9 Topology.switch1.eth[2].phyLayer.interFrameGapInserter interpacketGap:vector ETV
attr interpolationmode sample-hold
attr recordingmode vector
attr source "count(interpacketGapStarted) - count(interpacketGapEnded)"
attr title "interpacket gap state"
attr type int
vector 10 Topology.switch1.eth[2].phyLayer.transmitter transmitting:vector ETV
attr interpolationmode sample-hold
attr recordingmode vector
attr source "count(transmissionStarted) - count(transmissionEnded)"
attr title "transmitting state"
attr type int
vector 11 Topology.switch2.eth[0].phyLayer.interFrameGapInserter interpacketGap:vector ETV
attr interpolationmode sample-hold
attr recordingmode vector
attr source "count(interpacketGapStarted) - count(interpacketGapEnded)"
attr title "interpacket gap state"
attr type int
vector 12 Topology.switch2.eth[0].phyLayer.transmitter transmitting:vector ETV
attr interpolationmode sample-hold
attr recordingmode vector
attr source "count(transmissionStarted) - count(transmissionEnded)"
attr title "transmitting state"
attr type int
vector 13 Topology.switch2.eth[1].phyLayer.interFrameGapInserter interpacketGap:vector ETV
attr interpolationmode sample-hold
attr recordingmode vector
attr source "count(interpacketGapStarted) - count(interpacketGapEnded)"
attr title "interpacket gap state"
attr type int
vector 14 Topology.switch2.eth[1].phyLayer.transmitter transmitting:vector ETV
attr interpolationmode sample-hold
attr recordingmode vector
attr source "count(transmissionStarted) - count(transmissionEnded)"
attr title "transmitting state"
attr type int
vector 15 Topology.switch2.eth[2].phyLayer.interFrameGapInserter interpacketGap:vector ETV
attr interpolationmode sample-hold
attr recordingmode vector
attr source "count(interpacketGapStarted) - count(interpacketGapEnded)"
attr title "interpacket gap state"
attr type int
vector 16 Topology.switch2.eth[2].phyLayer.transmitter transmitting:vector ETV
attr interpolationmode sample-hold
attr recordingmode vector
attr source "count(transmissionStarted) - count(transmissionEnded)"
attr title "transmitting state"
attr type int
vector 17 Topology.switch2.eth[3].phyLayer.interFrameGapInserter interpacketGap:vector ETV
attr interpolationmode sample-hold
attr recordingmode vector
attr source "count(interpacketGapStarted) - count(interpacketGapEnded)"
attr title "interpacket gap state"
attr type int
vector 18 Topology.switch2.eth[3].phyLayer.transmitter transmitting:vector ETV
attr interpolationmode sample-hold
attr recordingmode vector
attr source "count(transmissionStarted) - count(transmissionEnded)"
attr title "transmitting state"
attr type int
vector 19 Topology.switch3.eth[0].phyLayer.interFrameGapInserter interpacketGap:vector ETV
attr interpolationmode sample-hold
attr recordingmode vector
attr source "count(interpacketGapStarted) - count(interpacketGapEnded)"
attr title "interpacket gap state"
attr type int
vector 20 Topology.switch3.eth[0].phyLayer.transmitter transmitting:vector ETV
attr interpolationmode sample-hold
attr recordingmode vector
attr source "count(transmissionStarted) - count(transmissionEnded)"
attr title "transmitting state"
attr type int
vector 21 Topology.switch3.eth[1].phyLayer.interFrameGapInserter interpacketGap:vector ETV
attr interpolationmode sample-hold
attr recordingmode vector
attr source "count(interpacketGapStarted) - count(interpacketGapEnded)"
attr title "interpacket gap state"
attr type int
vector 22 Topology.switch3.eth[1].phyLayer.transmitter transmitting:vector ETV
attr interpolationmode sample-hold
attr recordingmode vector
attr source "count(transmissionStarted) - count(transmissionEnded)"
attr title "transmitting state"
attr type int
vector 23 Topology.switch3.eth[2].phyLayer.interFrameGapInserter interpacketGap:vector ETV
attr interpolationmode sample-hold
attr recordingmode vector
attr source "count(interpacketGapStarted) - count(interpacketGapEnded)"
attr title "interpacket gap state"
attr type int
vector 24 Topology.switch3.eth[2].phyLayer.transmitter transmitting:vector ETV
attr interpolationmode sample-hold
attr recordingmode vector
attr source "count(transmissionStarted) - count(transmissionEnded)"
attr title "transmitting state"
attr type int
vector 25 Topology.switch3.eth[3].phyLayer.interFrameGapInserter interpacketGap:vector ETV
attr interpolationmode sample-hold
attr recordingmode vector
attr source "count(interpacketGapStarted) - count(interpacketGapEnded)"
attr title "interpacket gap state"
attr type int
vector 26 Topology.switch3.eth[3].phyLayer.transmitter transmitting:vector ETV
attr interpolationmode sample-hold
attr recordingmode vector
attr source "count(transmissionStarted) - count(transmissionEnded)"
attr title "transmitting state"
attr type int
vector 27 Topology.switch4.eth[0].phyLayer.interFrameGapInserter interpacketGap:vector ETV
attr interpolationmode sample-hold
attr recordingmode vector
attr source "count(interpacketGapStarted) - count(interpacketGapEnded)"
attr title "interpacket gap state"
attr type int
vector 28 Topology.switch4.eth[0].phyLayer.transmitter transmitting:vector ETV
attr interpolationmode sample-hold
attr recordingmode vector
attr source "count(transmissionStarted) - count(transmissionEnded)"
attr title "transmitting state"
attr type int
vector 29 Topology.switch4.eth[1].phyLayer.interFrameGapInserter interpacketGap:vector ETV
attr interpolationmode sample-hold
attr recordingmode vector
attr source "count(interpacketGapStarted) - count(interpacketGapEnded)"
attr title "interpacket gap state"
attr type int
vector 30 Topology.switch4.eth[1].phyLayer.transmitter transmitting:vector ETV
attr interpolationmode sample-hold
attr recordingmode vector
attr source "count(transmissionStarted) - count(transmissionEnded)"
attr title "transmitting state"
attr type int
vector 31 Topology.switch4.eth[2].phyLayer.interFrameGapInserter interpacketGap:vector ETV
attr interpolationmode sample-hold
attr recordingmode vector
attr source "count(interpacketGapStarted) - count(interpacketGapEnded)"
attr title "interpacket gap state"
attr type int
vector 32 Topology.switch4.eth[2].phyLayer.transmitter transmitting:vector ETV
attr interpolationmode sample-hold
attr recordingmode vector
attr source "count(transmissionStarted) - count(transmissionEnded)"
attr title "transmitting state"
attr type int
vector 33 Topology.switch5.eth[0].phyLayer.interFrameGapInserter interpacketGap:vector ETV
attr interpolationmode sample-hold
attr recordingmode vector
attr source "count(interpacketGapStarted) - count(interpacketGapEnded)"
attr title "interpacket gap state"
attr type int
vector 34 Topology.switch5.eth[0].phyLayer.transmitter transmitting:vector ETV
attr interpolationmode sample-hold
attr recordingmode vector
attr source "count(transmissionStarted) - count(transmissionEnded)"
attr title "transmitting state"
attr type int
vector 35 Topology.switch5.eth[1].phyLayer.interFrameGapInserter interpacketGap:vector ETV
attr interpolationmode sample-hold
attr recordingmode vector
attr source "count(interpacketGapStarted) - count(interpacketGapEnded)"
attr title "interpacket gap state"
attr type int
vector 36 Topology.switch5.eth[1].phyLayer.transmitter transmitting:vector ETV
attr interpolationmode sample-hold
attr recordingmode vector
attr source "count(transmissionStarted) - count(transmissionEnded)"
attr title "transmitting state"
attr type int
vector 37 Topology.switch5.eth[2].phyLayer.interFrameGapInserter interpacketGap:vector ETV
attr interpolationmode sample-hold
attr recordingmode vector
attr source "count(interpacketGapStarted) - count(interpacketGapEnded)"
attr title "interpacket gap state"
attr type int
vector 38 Topology.switch5.eth[2].phyLayer.transmitter transmitting:vector ETV
attr interpolationmode sample-hold
attr recordingmode vector
attr source "count(transmissionStarted) - count(transmissionEnded)"
attr title "transmitting state"
attr type int
vector 39 Topology.switch6.eth[0].phyLayer.interFrameGapInserter interpacketGap:vector ETV
attr interpolationmode sample-hold
attr recordingmode vector
attr source "count(interpacketGapStarted) - count(interpacketGapEnded)"
attr title "interpacket gap state"
attr type int
vector 40 Topology.switch6.eth[0].phyLayer.transmitter transmitting:vector ETV
attr interpolationmode sample-hold
attr recordingmode vector
attr source "count(transmissionStarted) - count(transmissionEnded)"
attr title "transmitting state"
attr type int
vector 41 Topology.switch6.eth[1].phyLayer.interFrameGapInserter interpacketGap:vector ETV
attr interpolationmode sample-hold
attr recordingmode vector
attr source "count(interpacketGapStarted) - count(interpacketGapEnded)"
attr title "interpacket gap state"
attr type int
vector 42 Topology.switch6.eth[1].phyLayer.transmitter transmitting:vector ETV
attr interpolationmode sample-hold
attr recordingmode vector
attr source "count(transmissionStarted) - count(transmissionEnded)"
attr title "transmitting state"
attr type int
vector 43 Topology.switch6.eth[2].phyLayer.interFrameGapInserter interpacketGap:vector ETV
attr interpolationmode sample-hold
attr recordingmode vector
attr source "count(interpacketGapStarted) - count(interpacketGapEnded)"
attr title "interpacket gap state"
attr type int
vector 44 Topology.switch6.eth[2].phyLayer.transmitter transmitting:vector ETV
attr interpolationmode sample-hold
attr recordingmode vector
attr source "count(transmissionStarted) - count(transmissionEnded)"
attr title "transmitting state"
attr type int
vector 45 Topology.switch7.eth[0].phyLayer.interFrameGapInserter interpacketGap:vector ETV
attr interpolationmode sample-hold
attr recordingmode vector
attr source "count(interpacketGapStarted) - count(interpacketGapEnded)"
attr title "interpacket gap state"
attr type int
vector 46 Topology.switch7.eth[0].phyLayer.transmitter transmitting:vector ETV
attr interpolationmode sample-hold
attr recordingmode vector
attr source "count(transmissionStarted) - count(transmissionEnded)"
attr title "transmitting state"
attr type int
vector 47 Topology.switch7.eth[1].phyLayer.interFrameGapInserter interpacketGap:vector ETV
attr interpolationmode sample-hold
attr recordingmode vector
attr source "count(interpacketGapStarted) - count(interpacketGapEnded)"
attr title "interpacket gap state"
attr type int
vector 48 Topology.switch7.eth[1].phyLayer.transmitter transmitting:vector ETV
attr interpolationmode sample-hold
attr recordingmode vector
attr source "count(transmissionStarted) - count(transmissionEnded)"
attr title "transmitting state"
attr type int
vector 49 Topology.switch7.eth[2].phyLayer.interFrameGapInserter interpacketGap:vector ETV
attr interpolationmode sample-hold
attr recordingmode vector
attr source "count(interpacketGapStarted) - count(interpacketGapEnded)"
attr title "interpacket gap state"
attr type int
vector 50 Topology.switch7.eth[2].phyLayer.transmitter transmitting:vector ETV
attr interpolationmode sample-hold
attr recordingmode vector
attr source "count(transmissionStarted) - count(transmissionEnded)"
attr title "transmitting state"
attr type int
vector 51 Topology.upf1.ppp[0].ppp transmissionState:vector ETV
attr interpolationmode sample-hold
attr recordingmode vector
attr source transmissionStateChanged
attr title "tx state"
vector 52 Topology.upf1.ppp[1].ppp transmissionState:vector ETV
attr interpolationmode sample-hold
attr recordingmode vector
attr source transmissionStateChanged
attr title "tx state"
vector 53 Topology.upf1.udp passedUpPk:vector(count) ETV
attr interpolationmode none
attr recordingmode vector(count)
attr source packetSentToUpper
attr title "packets passed up, count"
vector 54 Topology.upf1.udp droppedPkWrongPort:vector(count) ETV
attr interpolationmode none
attr recordingmode vector(count)
attr source packetDropReasonIsNoPortFound(packetDropped)
attr title "packets dropped (wrong port), count"
vector 55 Topology.upf1.udp droppedPkBadChecksum:vector(count) ETV
attr interpolationmode none
attr recordingmode vector(count)
attr source packetDropReasonIsIncorrectlyReceived(packetDropped)
attr title "packets dropped (checksum error), count"
vector 56 Topology.upf1.NWTT.phyLayer.interFrameGapInserter interpacketGap:vector ETV
attr interpolationmode sample-hold
attr recordingmode vector
attr source "count(interpacketGapStarted) - count(interpacketGapEnded)"
attr title "interpacket gap state"
attr type int
vector 57 Topology.upf1.NWTT.phyLayer.transmitter transmitting:vector ETV
attr interpolationmode sample-hold
attr recordingmode vector
attr source "count(transmissionStarted) - count(transmissionEnded)"
attr title "transmitting state"
attr type int
vector 58 Topology.upf2.ppp[0].ppp transmissionState:vector ETV
attr interpolationmode sample-hold
attr recordingmode vector
attr source transmissionStateChanged
attr title "tx state"
vector 59 Topology.upf2.ppp[1].ppp transmissionState:vector ETV
attr interpolationmode sample-hold
attr recordingmode vector
attr source transmissionStateChanged
attr title "tx state"
vector 60 Topology.upf2.udp passedUpPk:vector(count) ETV
attr interpolationmode none
attr recordingmode vector(count)
attr source packetSentToUpper
attr title "packets passed up, count"
vector 61 Topology.upf2.udp droppedPkWrongPort:vector(count) ETV
attr interpolationmode none
attr recordingmode vector(count)
attr source packetDropReasonIsNoPortFound(packetDropped)
attr title "packets dropped (wrong port), count"
vector 62 Topology.upf2.udp droppedPkBadChecksum:vector(count) ETV
attr interpolationmode none
attr recordingmode vector(count)
attr source packetDropReasonIsIncorrectlyReceived(packetDropped)
attr title "packets dropped (checksum error), count"
vector 63 Topology.upf2.NWTT.phyLayer.interFrameGapInserter interpacketGap:vector ETV
attr interpolationmode sample-hold
attr recordingmode vector
attr source "count(interpacketGapStarted) - count(interpacketGapEnded)"
attr title "interpacket gap state"
attr type int
vector 64 Topology.upf2.NWTT.phyLayer.transmitter transmitting:vector ETV
attr interpolationmode sample-hold
attr recordingmode vector
attr source "count(transmissionStarted) - count(transmissionEnded)"
attr title "transmitting state"
attr type int
vector 65 Topology.upf3.ppp[0].ppp transmissionState:vector ETV
attr interpolationmode sample-hold
attr recordingmode vector
attr source transmissionStateChanged
attr title "tx state"
vector 66 Topology.upf3.ppp[1].ppp transmissionState:vector ETV
attr interpolationmode sample-hold
attr recordingmode vector
attr source transmissionStateChanged
attr title "tx state"
vector 67 Topology.upf3.udp passedUpPk:vector(count) ETV
attr interpolationmode none
attr recordingmode vector(count)
attr source packetSentToUpper
attr title "packets passed up, count"
vector 68 Topology.upf3.udp droppedPkWrongPort:vector(count) ETV
attr interpolationmode none
attr recordingmode vector(count)
attr source packetDropReasonIsNoPortFound(packetDropped)
attr title "packets dropped (wrong port), count"
vector 69 Topology.upf3.udp droppedPkBadChecksum:vector(count) ETV
attr interpolationmode none
attr recordingmode vector(count)
attr source packetDropReasonIsIncorrectlyReceived(packetDropped)
attr title "packets dropped (checksum error), count"
vector 70 Topology.upf3.NWTT.phyLayer.interFrameGapInserter interpacketGap:vector ETV
attr interpolationmode sample-hold
attr recordingmode vector
attr source "count(interpacketGapStarted) - count(interpacketGapEnded)"
attr title "interpacket gap state"
attr type int
vector 71 Topology.upf3.NWTT.phyLayer.transmitter transmitting:vector ETV
attr interpolationmode sample-hold
attr recordingmode vector
attr source "count(transmissionStarted) - count(transmissionEnded)"
attr title "transmitting state"
attr type int
vector 72 Topology.upf4.ppp[0].ppp transmissionState:vector ETV
attr interpolationmode sample-hold
attr recordingmode vector
attr source transmissionStateChanged
attr title "tx state"
vector 73 Topology.upf4.ppp[1].ppp transmissionState:vector ETV
attr interpolationmode sample-hold
attr recordingmode vector
attr source transmissionStateChanged
attr title "tx state"
vector 74 Topology.upf4.udp passedUpPk:vector(count) ETV
attr interpolationmode none
attr recordingmode vector(count)
attr source packetSentToUpper
attr title "packets passed up, count"
vector 75 Topology.upf4.udp droppedPkWrongPort:vector(count) ETV
attr interpolationmode none
attr recordingmode vector(count)
attr source packetDropReasonIsNoPortFound(packetDropped)
attr title "packets dropped (wrong port), count"
vector 76 Topology.upf4.udp droppedPkBadChecksum:vector(count) ETV
attr interpolationmode none
attr recordingmode vector(count)
attr source packetDropReasonIsIncorrectlyReceived(packetDropped)
attr title "packets dropped (checksum error), count"
vector 77 Topology.upf4.NWTT.phyLayer.interFrameGapInserter interpacketGap:vector ETV
attr interpolationmode sample-hold
attr recordingmode vector
attr source "count(interpacketGapStarted) - count(interpacketGapEnded)"
attr title "interpacket gap state"
attr type int
vector 78 Topology.upf4.NWTT.phyLayer.transmitter transmitting:vector ETV
attr interpolationmode sample-hold
attr recordingmode vector
attr source "count(transmissionStarted) - count(transmissionEnded)"
attr title "transmitting state"
attr type int
vector 79 Topology.gnbL1.pppIf.ppp transmissionState:vector ETV
attr interpolationmode sample-hold
attr recordingmode vector
attr source transmissionStateChanged
attr title "tx state"
vector 80 Topology.gnbL1.pppMEHostIf.ppp transmissionState:vector ETV
attr interpolationmode sample-hold
attr recordingmode vector
attr source transmissionStateChanged
attr title "tx state"
vector 81 Topology.gnbL1.udp passedUpPk:vector(count) ETV
attr interpolationmode none
attr recordingmode vector(count)
attr source packetSentToUpper
attr title "packets passed up, count"
vector 82 Topology.gnbL1.udp droppedPkWrongPort:vector(count) ETV
attr interpolationmode none
attr recordingmode vector(count)
attr source packetDropReasonIsNoPortFound(packetDropped)
attr title "packets dropped (wrong port), count"
vector 83 Topology.gnbL1.udp droppedPkBadChecksum:vector(count) ETV
attr interpolationmode none
attr recordingmode vector(count)
attr source packetDropReasonIsIncorrectlyReceived(packetDropped)
attr title "packets dropped (checksum error), count"
vector 84 Topology.gnbL2.pppIf.ppp transmissionState:vector ETV
attr interpolationmode sample-hold
attr recordingmode vector
attr source transmissionStateChanged
attr title "tx state"
vector 85 Topology.gnbL2.pppMEHostIf.ppp transmissionState:vector ETV
attr interpolationmode sample-hold
attr recordingmode vector
attr source transmissionStateChanged
attr title "tx state"
vector 86 Topology.gnbL2.udp passedUpPk:vector(count) ETV
attr interpolationmode none
attr recordingmode vector(count)
attr source packetSentToUpper
attr title "packets passed up, count"
vector 87 Topology.gnbL2.udp droppedPkWrongPort:vector(count) ETV
attr interpolationmode none
attr recordingmode vector(count)
attr source packetDropReasonIsNoPortFound(packetDropped)
attr title "packets dropped (wrong port), count"
vector 88 Topology.gnbL2.udp droppedPkBadChecksum:vector(count) ETV
attr interpolationmode none
attr recordingmode vector(count)
attr source packetDropReasonIsIncorrectlyReceived(packetDropped)
attr title "packets dropped (checksum error), count"
vector 89 Topology.gnbL3.pppIf.ppp transmissionState:vector ETV
attr interpolationmode sample-hold
attr recordingmode vector
attr source transmissionStateChanged
attr title "tx state"
vector 90 Topology.gnbL3.pppMEHostIf.ppp transmissionState:vector ETV
attr interpolationmode sample-hold
attr recordingmode vector
attr source transmissionStateChanged
attr title "tx state"
vector 91 Topology.gnbL3.udp passedUpPk:vector(count) ETV
attr interpolationmode none
attr recordingmode vector(count)
attr source packetSentToUpper
attr title "packets passed up, count"
vector 92 Topology.gnbL3.udp droppedPkWrongPort:vector(count) ETV
attr interpolationmode none
attr recordingmode vector(count)
attr source packetDropReasonIsNoPortFound(packetDropped)
attr title "packets dropped (wrong port), count"
vector 93 Topology.gnbL3.udp droppedPkBadChecksum:vector(count) ETV
attr interpolationmode none
attr recordingmode vector(count)
attr source packetDropReasonIsIncorrectlyReceived(packetDropped)
attr title "packets dropped (checksum error), count"
vector 94 Topology.gnbL4.pppIf.ppp transmissionState:vector ETV
attr interpolationmode sample-hold
attr recordingmode vector
attr source transmissionStateChanged
attr title "tx state"
vector 95 Topology.gnbL4.pppMEHostIf.ppp transmissionState:vector ETV
attr interpolationmode sample-hold
attr recordingmode vector
attr source transmissionStateChanged
attr title "tx state"
vector 96 Topology.gnbL4.udp passedUpPk:vector(count) ETV
attr interpolationmode none
attr recordingmode vector(count)
attr source packetSentToUpper
attr title "packets passed up, count"
vector 97 Topology.gnbL4.udp droppedPkWrongPort:vector(count) ETV
attr interpolationmode none
attr recordingmode vector(count)
attr source packetDropReasonIsNoPortFound(packetDropped)
attr title "packets dropped (wrong port), count"
vector 98 Topology.gnbL4.udp droppedPkBadChecksum:vector(count) ETV
attr interpolationmode none
attr recordingmode vector(count)
attr source packetDropReasonIsIncorrectlyReceived(packetDropped)
attr title "packets dropped (checksum error), count"
vector 99 Topology.gnbR1.pppIf.ppp transmissionState:vector ETV
attr interpolationmode sample-hold
attr recordingmode vector
attr source transmissionStateChanged
attr title "tx state"
vector 100 Topology.gnbR1.pppMEHostIf.ppp transmissionState:vector ETV
attr interpolationmode sample-hold
attr recordingmode vector
attr source transmissionStateChanged
attr title "tx state"
vector 101 Topology.gnbR1.udp passedUpPk:vector(count) ETV
attr interpolationmode none
attr recordingmode vector(count)
attr source packetSentToUpper
attr title "packets passed up, count"
vector 102 Topology.gnbR1.udp droppedPkWrongPort:vector(count) ETV
attr interpolationmode none
attr recordingmode vector(count)
attr source packetDropReasonIsNoPortFound(packetDropped)
attr title "packets dropped (wrong port), count"
vector 103 Topology.gnbR1.udp droppedPkBadChecksum:vector(count) ETV
attr interpolationmode none
attr recordingmode vector(count)
attr source packetDropReasonIsIncorrectlyReceived(packetDropped)
attr title "packets dropped (checksum error), count"
vector 104 Topology.gnbR2.pppIf.ppp transmissionState:vector ETV
attr interpolationmode sample-hold
attr recordingmode vector
attr source transmissionStateChanged
attr title "tx state"
vector 105 Topology.gnbR2.pppMEHostIf.ppp transmissionState:vector ETV
attr interpolationmode sample-hold
attr recordingmode vector
attr source transmissionStateChanged
attr title "tx state"
vector 106 Topology.gnbR2.udp passedUpPk:vector(count) ETV
attr interpolationmode none
attr recordingmode vector(count)
attr source packetSentToUpper
attr title "packets passed up, count"
vector 107 Topology.gnbR2.udp droppedPkWrongPort:vector(count) ETV
attr interpolationmode none
attr recordingmode vector(count)
attr source packetDropReasonIsNoPortFound(packetDropped)
attr title "packets dropped (wrong port), count"
vector 108 Topology.gnbR2.udp droppedPkBadChecksum:vector(count) ETV
attr interpolationmode none
attr recordingmode vector(count)
attr source packetDropReasonIsIncorrectlyReceived(packetDropped)
attr title "packets dropped (checksum error), count"
vector 109 Topology.gnbR3.pppIf.ppp transmissionState:vector ETV
attr interpolationmode sample-hold
attr recordingmode vector
attr source transmissionStateChanged
attr title "tx state"
vector 110 Topology.gnbR3.pppMEHostIf.ppp transmissionState:vector ETV
attr interpolationmode sample-hold
attr recordingmode vector
attr source transmissionStateChanged
attr title "tx state"
vector 111 Topology.gnbR3.udp passedUpPk:vector(count) ETV
attr interpolationmode none
attr recordingmode vector(count)
attr source packetSentToUpper
attr title "packets passed up, count"
vector 112 Topology.gnbR3.udp droppedPkWrongPort:vector(count) ETV
attr interpolationmode none
attr recordingmode vector(count)
attr source packetDropReasonIsNoPortFound(packetDropped)
attr title "packets dropped (wrong port), count"
vector 113 Topology.gnbR3.udp droppedPkBadChecksum:vector(count) ETV
attr interpolationmode none
attr recordingmode vector(count)
attr source packetDropReasonIsIncorrectlyReceived(packetDropped)
attr title "packets dropped (checksum error), count"
vector 114 Topology.gnbR4.pppIf.ppp transmissionState:vector ETV
attr interpolationmode sample-hold
attr recordingmode vector
attr source transmissionStateChanged
attr title "tx state"
vector 115 Topology.gnbR4.pppMEHostIf.ppp transmissionState:vector ETV
attr interpolationmode sample-hold
attr recordingmode vector
attr source transmissionStateChanged
attr title "tx state"
vector 116 Topology.gnbR4.udp passedUpPk:vector(count) ETV
attr interpolationmode none
attr recordingmode vector(count)
attr source packetSentToUpper
attr title "packets passed up, count"
vector 117 Topology.gnbR4.udp droppedPkWrongPort:vector(count) ETV
attr interpolationmode none
attr recordingmode vector(count)
attr source packetDropReasonIsNoPortFound(packetDropped)
attr title "packets dropped (wrong port), count"
vector 118 Topology.gnbR4.udp droppedPkBadChecksum:vector(count) ETV
attr interpolationmode none
attr recordingmode vector(count)
attr source packetDropReasonIsIncorrectlyReceived(packetDropped)
attr title "packets dropped (checksum error), count"
vector 119 Topology.HVACClient[0].eth[0].phyLayer.interFrameGapInserter interpacketGap:vector ETV
attr interpolationmode sample-hold
attr recordingmode vector
attr source "count(interpacketGapStarted) - count(interpacketGapEnded)"
attr title "interpacket gap state"
attr type int
vector 120 Topology.HVACClient[0].eth[0].phyLayer.transmitter transmitting:vector ETV
attr interpolationmode sample-hold
attr recordingmode vector
attr source "count(transmissionStarted) - count(transmissionEnded)"
attr title "transmitting state"
attr type int
vector 121 Topology.HVACClient[0].udp passedUpPk:vector(count) ETV
attr interpolationmode none
attr recordingmode vector(count)
attr source packetSentToUpper
attr title "packets passed up, count"
vector 122 Topology.HVACClient[0].udp droppedPkWrongPort:vector(count) ETV
attr interpolationmode none
attr recordingmode vector(count)
attr source packetDropReasonIsNoPortFound(packetDropped)
attr title "packets dropped (wrong port), count"
vector 123 Topology.HVACClient[0].udp droppedPkBadChecksum:vector(count) ETV
attr interpolationmode none
attr recordingmode vector(count)
attr source packetDropReasonIsIncorrectlyReceived(packetDropped)
attr title "packets dropped (checksum error), count"
vector 124 Topology.HVACClient[1].eth[0].phyLayer.interFrameGapInserter interpacketGap:vector ETV
attr interpolationmode sample-hold
attr recordingmode vector
attr source "count(interpacketGapStarted) - count(interpacketGapEnded)"
attr title "interpacket gap state"
attr type int
vector 125 Topology.HVACClient[1].eth[0].phyLayer.transmitter transmitting:vector ETV
attr interpolationmode sample-hold
attr recordingmode vector
attr source "count(transmissionStarted) - count(transmissionEnded)"
attr title "transmitting state"
attr type int
vector 126 Topology.HVACClient[1].udp passedUpPk:vector(count) ETV
attr interpolationmode none
attr recordingmode vector(count)
attr source packetSentToUpper
attr title "packets passed up, count"
vector 127 Topology.HVACClient[1].udp droppedPkWrongPort:vector(count) ETV
attr interpolationmode none
attr recordingmode vector(count)
attr source packetDropReasonIsNoPortFound(packetDropped)
attr title "packets dropped (wrong port), count"
vector 128 Topology.HVACClient[1].udp droppedPkBadChecksum:vector(count) ETV
attr interpolationmode none
attr recordingmode vector(count)
attr source packetDropReasonIsIncorrectlyReceived(packetDropped)
attr title "packets dropped (checksum error), count"
vector 129 Topology.HVACClient[2].eth[0].phyLayer.interFrameGapInserter interpacketGap:vector ETV
attr interpolationmode sample-hold
attr recordingmode vector
attr source "count(interpacketGapStarted) - count(interpacketGapEnded)"
attr title "interpacket gap state"
attr type int
vector 130 Topology.HVACClient[2].eth[0].phyLayer.transmitter transmitting:vector ETV
attr interpolationmode sample-hold
attr recordingmode vector
attr source "count(transmissionStarted) - count(transmissionEnded)"
attr title "transmitting state"
attr type int
vector 131 Topology.HVACClient[2].udp passedUpPk:vector(count) ETV
attr interpolationmode none
attr recordingmode vector(count)
attr source packetSentToUpper
attr title "packets passed up, count"
vector 132 Topology.HVACClient[2].udp droppedPkWrongPort:vector(count) ETV
attr interpolationmode none
attr recordingmode vector(count)
attr source packetDropReasonIsNoPortFound(packetDropped)
attr title "packets dropped (wrong port), count"
vector 133 Topology.HVACClient[2].udp droppedPkBadChecksum:vector(count) ETV
attr interpolationmode none
attr recordingmode vector(count)
attr source packetDropReasonIsIncorrectlyReceived(packetDropped)
attr title "packets dropped (checksum error), count"
vector 134 Topology.HVACClient[3].eth[0].phyLayer.interFrameGapInserter interpacketGap:vector ETV
attr interpolationmode sample-hold
attr recordingmode vector
attr source "count(interpacketGapStarted) - count(interpacketGapEnded)"
attr title "interpacket gap state"
attr type int
vector 135 Topology.HVACClient[3].eth[0].phyLayer.transmitter transmitting:vector ETV
attr interpolationmode sample-hold
attr recordingmode vector
attr source "count(transmissionStarted) - count(transmissionEnded)"
attr title "transmitting state"
attr type int
vector 136 Topology.HVACClient[3].udp passedUpPk:vector(count) ETV
attr interpolationmode none
attr recordingmode vector(count)
attr source packetSentToUpper
attr title "packets passed up, count"
vector 137 Topology.HVACClient[3].udp droppedPkWrongPort:vector(count) ETV
attr interpolationmode none
attr recordingmode vector(count)
attr source packetDropReasonIsNoPortFound(packetDropped)
attr title "packets dropped (wrong port), count"
vector 138 Topology.HVACClient[3].udp droppedPkBadChecksum:vector(count) ETV
attr interpolationmode none
attr recordingmode vector(count)
attr source packetDropReasonIsIncorrectlyReceived(packetDropped)
attr title "packets dropped (checksum error), count"
vector 139 Topology.HVACClient[4].eth[0].phyLayer.interFrameGapInserter interpacketGap:vector ETV
attr interpolationmode sample-hold
attr recordingmode vector
attr source "count(interpacketGapStarted) - count(interpacketGapEnded)"
attr title "interpacket gap state"
attr type int
vector 140 Topology.HVACClient[4].eth[0].phyLayer.transmitter transmitting:vector ETV
attr interpolationmode sample-hold
attr recordingmode vector
attr source "count(transmissionStarted) - count(transmissionEnded)"
attr title "transmitting state"
attr type int
vector 141 Topology.HVACClient[4].udp passedUpPk:vector(count) ETV
attr interpolationmode none
attr recordingmode vector(count)
attr source packetSentToUpper
attr title "packets passed up, count"
vector 142 Topology.HVACClient[4].udp droppedPkWrongPort:vector(count) ETV
attr interpolationmode none
attr recordingmode vector(count)
attr source packetDropReasonIsNoPortFound(packetDropped)
attr title "packets dropped (wrong port), count"
vector 143 Topology.HVACClient[4].udp droppedPkBadChecksum:vector(count) ETV
attr interpolationmode none
attr recordingmode vector(count)
attr source packetDropReasonIsIncorrectlyReceived(packetDropped)
attr title "packets dropped (checksum error), count"
vector 144 Topology.HVACClient[5].eth[0].phyLayer.interFrameGapInserter interpacketGap:vector ETV
attr interpolationmode sample-hold
attr recordingmode vector
attr source "count(interpacketGapStarted) - count(interpacketGapEnded)"
attr title "interpacket gap state"
attr type int
vector 145 Topology.HVACClient[5].eth[0].phyLayer.transmitter transmitting:vector ETV
attr interpolationmode sample-hold
attr recordingmode vector
attr source "count(transmissionStarted) - count(transmissionEnded)"
attr title "transmitting state"
attr type int
vector 146 Topology.HVACClient[5].udp passedUpPk:vector(count) ETV
attr interpolationmode none
attr recordingmode vector(count)
attr source packetSentToUpper
attr title "packets passed up, count"
vector 147 Topology.HVACClient[5].udp droppedPkWrongPort:vector(count) ETV
attr interpolationmode none
attr recordingmode vector(count)
attr source packetDropReasonIsNoPortFound(packetDropped)
attr title "packets dropped (wrong port), count"
vector 148 Topology.HVACClient[5].udp droppedPkBadChecksum:vector(count) ETV
attr interpolationmode none
attr recordingmode vector(count)
attr source packetDropReasonIsIncorrectlyReceived(packetDropped)
attr title "packets dropped (checksum error), count"
vector 149 Topology.HVACClient[6].eth[0].phyLayer.interFrameGapInserter interpacketGap:vector ETV
attr interpolationmode sample-hold
attr recordingmode vector
attr source "count(interpacketGapStarted) - count(interpacketGapEnded)"
attr title "interpacket gap state"
attr type int
vector 150 Topology.HVACClient[6].eth[0].phyLayer.transmitter transmitting:vector ETV
attr interpolationmode sample-hold
attr recordingmode vector
attr source "count(transmissionStarted) - count(transmissionEnded)"
attr title "transmitting state"
attr type int
vector 151 Topology.HVACClient[6].udp passedUpPk:vector(count) ETV
attr interpolationmode none
attr recordingmode vector(count)
attr source packetSentToUpper
attr title "packets passed up, count"
vector 152 Topology.HVACClient[6].udp droppedPkWrongPort:vector(count) ETV
attr interpolationmode none
attr recordingmode vector(count)
attr source packetDropReasonIsNoPortFound(packetDropped)
attr title "packets dropped (wrong port), count"
vector 153 Topology.HVACClient[6].udp droppedPkBadChecksum:vector(count) ETV
attr interpolationmode none
attr recordingmode vector(count)
attr source packetDropReasonIsIncorrectlyReceived(packetDropped)
attr title "packets dropped (checksum error), count"
vector 154 Topology.HVACClient[7].eth[0].phyLayer.interFrameGapInserter interpacketGap:vector ETV
attr interpolationmode sample-hold
attr recordingmode vector
attr source "count(interpacketGapStarted) - count(interpacketGapEnded)"
attr title "interpacket gap state"
attr type int
vector 155 Topology.HVACClient[7].eth[0].phyLayer.transmitter transmitting:vector ETV
attr interpolationmode sample-hold
attr recordingmode vector
attr source "count(transmissionStarted) - count(transmissionEnded)"
attr title "transmitting state"
attr type int
vector 156 Topology.HVACClient[7].udp passedUpPk:vector(count) ETV
attr interpolationmode none
attr recordingmode vector(count)
attr source packetSentToUpper
attr title "packets passed up, count"
vector 157 Topology.HVACClient[7].udp droppedPkWrongPort:vector(count) ETV
attr interpolationmode none
attr recordingmode vector(count)
attr source packetDropReasonIsNoPortFound(packetDropped)
attr title "packets dropped (wrong port), count"
vector 158 Topology.HVACClient[7].udp droppedPkBadChecksum:vector(count) ETV
attr interpolationmode none
attr recordingmode vector(count)
attr source packetDropReasonIsIncorrectlyReceived(packetDropped)
attr title "packets dropped (checksum error), count"
vector 159 Topology.HVACUe[0].udp passedUpPk:vector(count) ETV
attr interpolationmode none
attr recordingmode vector(count)
attr source packetSentToUpper
attr title "packets passed up, count"
vector 160 Topology.HVACUe[0].udp droppedPkWrongPort:vector(count) ETV
attr interpolationmode none
attr recordingmode vector(count)
attr source packetDropReasonIsNoPortFound(packetDropped)
attr title "packets dropped (wrong port), count"
vector 161 Topology.HVACUe[0].udp droppedPkBadChecksum:vector(count) ETV
attr interpolationmode none
attr recordingmode vector(count)
attr source packetDropReasonIsIncorrectlyReceived(packetDropped)
attr title "packets dropped (checksum error), count"
vector 162 Topology.HVACUe[0].DSTT.phyLayer.interFrameGapInserter interpacketGap:vector ETV
attr interpolationmode sample-hold
attr recordingmode vector
attr source "count(interpacketGapStarted) - count(interpacketGapEnded)"
attr title "interpacket gap state"
attr type int
vector 163 Topology.HVACUe[0].DSTT.phyLayer.transmitter transmitting:vector ETV
attr interpolationmode sample-hold
attr recordingmode vector
attr source "count(transmissionStarted) - count(transmissionEnded)"
attr title "transmitting state"
attr type int
vector 164 Topology.HVACUe[1].udp passedUpPk:vector(count) ETV
attr interpolationmode none
attr recordingmode vector(count)
attr source packetSentToUpper
attr title "packets passed up, count"
vector 165 Topology.HVACUe[1].udp droppedPkWrongPort:vector(count) ETV
attr interpolationmode none
attr recordingmode vector(count)
attr source packetDropReasonIsNoPortFound(packetDropped)
attr title "packets dropped (wrong port), count"
vector 166 Topology.HVACUe[1].udp droppedPkBadChecksum:vector(count) ETV
attr interpolationmode none
attr recordingmode vector(count)
attr source packetDropReasonIsIncorrectlyReceived(packetDropped)
attr title "packets dropped (checksum error), count"
vector 167 Topology.HVACUe[1].DSTT.phyLayer.interFrameGapInserter interpacketGap:vector ETV
attr interpolationmode sample-hold
attr recordingmode vector
attr source "count(interpacketGapStarted) - count(interpacketGapEnded)"
attr title "interpacket gap state"
attr type int
vector 168 Topology.HVACUe[1].DSTT.phyLayer.transmitter transmitting:vector ETV
attr interpolationmode sample-hold
attr recordingmode vector
attr source "count(transmissionStarted) - count(transmissionEnded)"
attr title "transmitting state"
attr type int
vector 169 Topology.HVACUe[2].udp passedUpPk:vector(count) ETV
attr interpolationmode none
attr recordingmode vector(count)
attr source packetSentToUpper
attr title "packets passed up, count"
vector 170 Topology.HVACUe[2].udp droppedPkWrongPort:vector(count) ETV
attr interpolationmode none
attr recordingmode vector(count)
attr source packetDropReasonIsNoPortFound(packetDropped)
attr title "packets dropped (wrong port), count"
vector 171 Topology.HVACUe[2].udp droppedPkBadChecksum:vector(count) ETV
attr interpolationmode none
attr recordingmode vector(count)
attr source packetDropReasonIsIncorrectlyReceived(packetDropped)
attr title "packets dropped (checksum error), count"
vector 172 Topology.HVACUe[2].DSTT.phyLayer.interFrameGapInserter interpacketGap:vector ETV
attr interpolationmode sample-hold
attr recordingmode vector
attr source "count(interpacketGapStarted) - count(interpacketGapEnded)"
attr title "interpacket gap state"
attr type int
vector 173 Topology.HVACUe[2].DSTT.phyLayer.transmitter transmitting:vector ETV
attr interpolationmode sample-hold
attr recordingmode vector
attr source "count(transmissionStarted) - count(transmissionEnded)"
attr title "transmitting state"
attr type int
vector 174 Topology.HVACUe[3].udp passedUpPk:vector(count) ETV
attr interpolationmode none
attr recordingmode vector(count)
attr source packetSentToUpper
attr title "packets passed up, count"
vector 175 Topology.HVACUe[3].udp droppedPkWrongPort:vector(count) ETV
attr interpolationmode none
attr recordingmode vector(count)
attr source packetDropReasonIsNoPortFound(packetDropped)
attr title "packets dropped (wrong port), count"
vector 176 Topology.HVACUe[3].udp droppedPkBadChecksum:vector(count) ETV
attr interpolationmode none
attr recordingmode vector(count)
attr source packetDropReasonIsIncorrectlyReceived(packetDropped)
attr title "packets dropped (checksum error), count"
vector 177 Topology.HVACUe[3].DSTT.phyLayer.interFrameGapInserter interpacketGap:vector ETV
attr interpolationmode sample-hold
attr recordingmode vector
attr source "count(interpacketGapStarted) - count(interpacketGapEnded)"
attr title "interpacket gap state"
attr type int
vector 178 Topology.HVACUe[3].DSTT.phyLayer.transmitter transmitting:vector ETV
attr interpolationmode sample-hold
attr recordingmode vector
attr source "count(transmissionStarted) - count(transmissionEnded)"
attr title "transmitting state"
attr type int
vector 179 Topology.HVACUe[4].udp passedUpPk:vector(count) ETV
attr interpolationmode none
attr recordingmode vector(count)
attr source packetSentToUpper
attr title "packets passed up, count"
vector 180 Topology.HVACUe[4].udp droppedPkWrongPort:vector(count) ETV
attr interpolationmode none
attr recordingmode vector(count)
attr source packetDropReasonIsNoPortFound(packetDropped)
attr title "packets dropped (wrong port), count"
vector 181 Topology.HVACUe[4].udp droppedPkBadChecksum:vector(count) ETV
attr interpolationmode none
attr recordingmode vector(count)
attr source packetDropReasonIsIncorrectlyReceived(packetDropped)
attr title "packets dropped (checksum error), count"
vector 182 Topology.HVACUe[4].DSTT.phyLayer.interFrameGapInserter interpacketGap:vector ETV
attr interpolationmode sample-hold
attr recordingmode vector
attr source "count(interpacketGapStarted) - count(interpacketGapEnded)"
attr title "interpacket gap state"
attr type int
vector 183 Topology.HVACUe[4].DSTT.phyLayer.transmitter transmitting:vector ETV
attr interpolationmode sample-hold
attr recordingmode vector
attr source "count(transmissionStarted) - count(transmissionEnded)"
attr title "transmitting state"
attr type int
vector 184 Topology.HVACUe[5].udp passedUpPk:vector(count) ETV
attr interpolationmode none
attr recordingmode vector(count)
attr source packetSentToUpper
attr title "packets passed up, count"
vector 185 Topology.HVACUe[5].udp droppedPkWrongPort:vector(count) ETV
attr interpolationmode none
attr recordingmode vector(count)
attr source packetDropReasonIsNoPortFound(packetDropped)
attr title "packets dropped (wrong port), count"
vector 186 Topology.HVACUe[5].udp droppedPkBadChecksum:vector(count) ETV
attr interpolationmode none
attr recordingmode vector(count)
attr source packetDropReasonIsIncorrectlyReceived(packetDropped)
attr title "packets dropped (checksum error), count"
vector 187 Topology.HVACUe[5].DSTT.phyLayer.interFrameGapInserter interpacketGap:vector ETV
attr interpolationmode sample-hold
attr recordingmode vector
attr source "count(interpacketGapStarted) - count(interpacketGapEnded)"
attr title "interpacket gap state"
attr type int
vector 188 Topology.HVACUe[5].DSTT.phyLayer.transmitter transmitting:vector ETV
attr interpolationmode sample-hold
attr recordingmode vector
attr source "count(transmissionStarted) - count(transmissionEnded)"
attr title "transmitting state"
attr type int
vector 189 Topology.HVACUe[6].udp passedUpPk:vector(count) ETV
attr interpolationmode none
attr recordingmode vector(count)
attr source packetSentToUpper
attr title "packets passed up, count"
vector 190 Topology.HVACUe[6].udp droppedPkWrongPort:vector(count) ETV
attr interpolationmode none
attr recordingmode vector(count)
attr source packetDropReasonIsNoPortFound(packetDropped)
attr title "packets dropped (wrong port), count"
vector 191 Topology.HVACUe[6].udp droppedPkBadChecksum:vector(count) ETV
attr interpolationmode none
attr recordingmode vector(count)
attr source packetDropReasonIsIncorrectlyReceived(packetDropped)
attr title "packets dropped (checksum error), count"
vector 192 Topology.HVACUe[6].DSTT.phyLayer.interFrameGapInserter interpacketGap:vector ETV
attr interpolationmode sample-hold
attr recordingmode vector
attr source "count(interpacketGapStarted) - count(interpacketGapEnded)"
attr title "interpacket gap state"
attr type int
vector 193 Topology.HVACUe[6].DSTT.phyLayer.transmitter transmitting:vector ETV
attr interpolationmode sample-hold
attr recordingmode vector
attr source "count(transmissionStarted) - count(transmissionEnded)"
attr title "transmitting state"
attr type int
vector 194 Topology.HVACUe[7].udp passedUpPk:vector(count) ETV
attr interpolationmode none
attr recordingmode vector(count)
attr source packetSentToUpper
attr title "packets passed up, count"
vector 195 Topology.HVACUe[7].udp droppedPkWrongPort:vector(count) ETV
attr interpolationmode none
attr recordingmode vector(count)
attr source packetDropReasonIsNoPortFound(packetDropped)
attr title "packets dropped (wrong port), count"
vector 196 Topology.HVACUe[7].udp droppedPkBadChecksum:vector(count) ETV
attr interpolationmode none
attr recordingmode vector(count)
attr source packetDropReasonIsIncorrectlyReceived(packetDropped)
attr title "packets dropped (checksum error), count"
vector 197 Topology.HVACUe[7].DSTT.phyLayer.interFrameGapInserter interpacketGap:vector ETV
attr interpolationmode sample-hold
attr recordingmode vector
attr source "count(interpacketGapStarted) - count(interpacketGapEnded)"
attr title "interpacket gap state"
attr type int
vector 198 Topology.HVACUe[7].DSTT.phyLayer.transmitter transmitting:vector ETV
attr interpolationmode sample-hold
attr recordingmode vector
attr source "count(transmissionStarted) - count(transmissionEnded)"
attr title "transmitting state"
attr type int
vector 199 Topology.BCClient[0].eth[0].phyLayer.interFrameGapInserter interpacketGap:vector ETV
attr interpolationmode sample-hold
attr recordingmode vector
attr source "count(interpacketGapStarted) - count(interpacketGapEnded)"
attr title "interpacket gap state"
attr type int
vector 200 Topology.BCClient[0].eth[0].phyLayer.transmitter transmitting:vector ETV
attr interpolationmode sample-hold
attr recordingmode vector
attr source "count(transmissionStarted) - count(transmissionEnded)"
attr title "transmitting state"
attr type int
vector 201 Topology.BCClient[0].udp passedUpPk:vector(count) ETV
attr interpolationmode none
attr recordingmode vector(count)
attr source packetSentToUpper
attr title "packets passed up, count"
vector 202 Topology.BCClient[0].udp droppedPkWrongPort:vector(count) ETV
attr interpolationmode none
attr recordingmode vector(count)
attr source packetDropReasonIsNoPortFound(packetDropped)
attr title "packets dropped (wrong port), count"
vector 203 Topology.BCClient[0].udp droppedPkBadChecksum:vector(count) ETV
attr interpolationmode none
attr recordingmode vector(count)
attr source packetDropReasonIsIncorrectlyReceived(packetDropped)
attr title "packets dropped (checksum error), count"
vector 204 Topology.BCClient[1].eth[0].phyLayer.interFrameGapInserter interpacketGap:vector ETV
attr interpolationmode sample-hold
attr recordingmode vector
attr source "count(interpacketGapStarted) - count(interpacketGapEnded)"
attr title "interpacket gap state"
attr type int
vector 205 Topology.BCClient[1].eth[0].phyLayer.transmitter transmitting:vector ETV
attr interpolationmode sample-hold
attr recordingmode vector
attr source "count(transmissionStarted) - count(transmissionEnded)"
attr title "transmitting state"
attr type int
vector 206 Topology.BCClient[1].udp passedUpPk:vector(count) ETV
attr interpolationmode none
attr recordingmode vector(count)
attr source packetSentToUpper
attr title "packets passed up, count"
vector 207 Topology.BCClient[1].udp droppedPkWrongPort:vector(count) ETV
attr interpolationmode none
attr recordingmode vector(count)
attr source packetDropReasonIsNoPortFound(packetDropped)
attr title "packets dropped (wrong port), count"
vector 208 Topology.BCClient[1].udp droppedPkBadChecksum:vector(count) ETV
attr interpolationmode none
attr recordingmode vector(count)
attr source packetDropReasonIsIncorrectlyReceived(packetDropped)
attr title "packets dropped (checksum error), count"
vector 209 Topology.BCClient[2].eth[0].phyLayer.interFrameGapInserter interpacketGap:vector ETV
attr interpolationmode sample-hold
attr recordingmode vector
attr source "count(interpacketGapStarted) - count(interpacketGapEnded)"
attr title "interpacket gap state"
attr type int
vector 210 Topology.BCClient[2].eth[0].phyLayer.transmitter transmitting:vector ETV
attr interpolationmode sample-hold
attr recordingmode vector
attr source "count(transmissionStarted) - count(transmissionEnded)"
attr title "transmitting state"
attr type int
vector 211 Topology.BCClient[2].udp passedUpPk:vector(count) ETV
attr interpolationmode none
attr recordingmode vector(count)
attr source packetSentToUpper
attr title "packets passed up, count"
vector 212 Topology.BCClient[2].udp droppedPkWrongPort:vector(count) ETV
attr interpolationmode none
attr recordingmode vector(count)
attr source packetDropReasonIsNoPortFound(packetDropped)
attr title "packets dropped (wrong port), count"
vector 213 Topology.BCClient[2].udp droppedPkBadChecksum:vector(count) ETV
attr interpolationmode none
attr recordingmode vector(count)
attr source packetDropReasonIsIncorrectlyReceived(packetDropped)
attr title "packets dropped (checksum error), count"
vector 214 Topology.BCClient[3].eth[0].phyLayer.interFrameGapInserter interpacketGap:vector ETV
attr interpolationmode sample-hold
attr recordingmode vector
attr source "count(interpacketGapStarted) - count(interpacketGapEnded)"
attr title "interpacket gap state"
attr type int
vector 215 Topology.BCClient[3].eth[0].phyLayer.transmitter transmitting:vector ETV
attr interpolationmode sample-hold
attr recordingmode vector
attr source "count(transmissionStarted) - count(transmissionEnded)"
attr title "transmitting state"
attr type int
vector 216 Topology.BCClient[3].udp passedUpPk:vector(count) ETV
attr interpolationmode none
attr recordingmode vector(count)
attr source packetSentToUpper
attr title "packets passed up, count"
vector 217 Topology.BCClient[3].udp droppedPkWrongPort:vector(count) ETV
attr interpolationmode none
attr recordingmode vector(count)
attr source packetDropReasonIsNoPortFound(packetDropped)
attr title "packets dropped (wrong port), count"
vector 218 Topology.BCClient[3].udp droppedPkBadChecksum:vector(count) ETV
attr interpolationmode none
attr recordingmode vector(count)
attr source packetDropReasonIsIncorrectlyReceived(packetDropped)
attr title "packets dropped (checksum error), count"
vector 219 Topology.BCClient[4].eth[0].phyLayer.interFrameGapInserter interpacketGap:vector ETV
attr interpolationmode sample-hold
attr recordingmode vector
attr source "count(interpacketGapStarted) - count(interpacketGapEnded)"
attr title "interpacket gap state"
attr type int
vector 220 Topology.BCClient[4].eth[0].phyLayer.transmitter transmitting:vector ETV
attr interpolationmode sample-hold
attr recordingmode vector
attr source "count(transmissionStarted) - count(transmissionEnded)"
attr title "transmitting state"
attr type int
vector 221 Topology.BCClient[4].udp passedUpPk:vector(count) ETV
attr interpolationmode none
attr recordingmode vector(count)
attr source packetSentToUpper
attr title "packets passed up, count"
vector 222 Topology.BCClient[4].udp droppedPkWrongPort:vector(count) ETV
attr interpolationmode none
attr recordingmode vector(count)
attr source packetDropReasonIsNoPortFound(packetDropped)
attr title "packets dropped (wrong port), count"
vector 223 Topology.BCClient[4].udp droppedPkBadChecksum:vector(count) ETV
attr interpolationmode none
attr recordingmode vector(count)
attr source packetDropReasonIsIncorrectlyReceived(packetDropped)
attr title "packets dropped (checksum error), count"
vector 224 Topology.BCClient[5].eth[0].phyLayer.interFrameGapInserter interpacketGap:vector ETV
attr interpolationmode sample-hold
attr recordingmode vector
attr source "count(interpacketGapStarted) - count(interpacketGapEnded)"
attr title "interpacket gap state"
attr type int
vector 225 Topology.BCClient[5].eth[0].phyLayer.transmitter transmitting:vector ETV
attr interpolationmode sample-hold
attr recordingmode vector
attr source "count(transmissionStarted) - count(transmissionEnded)"
attr title "transmitting state"
attr type int
vector 226 Topology.BCClient[5].udp passedUpPk:vector(count) ETV
attr interpolationmode none
attr recordingmode vector(count)
attr source packetSentToUpper
attr title "packets passed up, count"
vector 227 Topology.BCClient[5].udp droppedPkWrongPort:vector(count) ETV
attr interpolationmode none
attr recordingmode vector(count)
attr source packetDropReasonIsNoPortFound(packetDropped)
attr title "packets dropped (wrong port), count"
vector 228 Topology.BCClient[5].udp droppedPkBadChecksum:vector(count) ETV
attr interpolationmode none
attr recordingmode vector(count)
attr source packetDropReasonIsIncorrectlyReceived(packetDropped)
attr title "packets dropped (checksum error), count"
vector 229 Topology.BCClient[6].eth[0].phyLayer.interFrameGapInserter interpacketGap:vector ETV
attr interpolationmode sample-hold
attr recordingmode vector
attr source "count(interpacketGapStarted) - count(interpacketGapEnded)"
attr title "interpacket gap state"
attr type int
vector 230 Topology.BCClient[6].eth[0].phyLayer.transmitter transmitting:vector ETV
attr interpolationmode sample-hold
attr recordingmode vector
attr source "count(transmissionStarted) - count(transmissionEnded)"
attr title "transmitting state"
attr type int
vector 231 Topology.BCClient[6].udp passedUpPk:vector(count) ETV
attr interpolationmode none
attr recordingmode vector(count)
attr source packetSentToUpper
attr title "packets passed up, count"
vector 232 Topology.BCClient[6].udp droppedPkWrongPort:vector(count) ETV
attr interpolationmode none
attr recordingmode vector(count)
attr source packetDropReasonIsNoPortFound(packetDropped)
attr title "packets dropped (wrong port), count"
vector 233 Topology.BCClient[6].udp droppedPkBadChecksum:vector(count) ETV
attr interpolationmode none
attr recordingmode vector(count)
attr source packetDropReasonIsIncorrectlyReceived(packetDropped)
attr title "packets dropped (checksum error), count"
vector 234 Topology.BCClient[7].eth[0].phyLayer.interFrameGapInserter interpacketGap:vector ETV
attr interpolationmode sample-hold
attr recordingmode vector
attr source "count(interpacketGapStarted) - count(interpacketGapEnded)"
attr title "interpacket gap state"
attr type int
vector 235 Topology.BCClient[7].eth[0].phyLayer.transmitter transmitting:vector ETV
attr interpolationmode sample-hold
attr recordingmode vector
attr source "count(transmissionStarted) - count(transmissionEnded)"
attr title "transmitting state"
attr type int
vector 236 Topology.BCClient[7].udp passedUpPk:vector(count) ETV
attr interpolationmode none
attr recordingmode vector(count)
attr source packetSentToUpper
attr title "packets passed up, count"
vector 237 Topology.BCClient[7].udp droppedPkWrongPort:vector(count) ETV
attr interpolationmode none
attr recordingmode vector(count)
attr source packetDropReasonIsNoPortFound(packetDropped)
attr title "packets dropped (wrong port), count"
vector 238 Topology.BCClient[7].udp droppedPkBadChecksum:vector(count) ETV
attr interpolationmode none
attr recordingmode vector(count)
attr source packetDropReasonIsIncorrectlyReceived(packetDropped)
attr title "packets dropped (checksum error), count"
vector 239 Topology.BCUe[0].udp passedUpPk:vector(count) ETV
attr interpolationmode none
attr recordingmode vector(count)
attr source packetSentToUpper
attr title "packets passed up, count"
vector 240 Topology.BCUe[0].udp droppedPkWrongPort:vector(count) ETV
attr interpolationmode none
attr recordingmode vector(count)
attr source packetDropReasonIsNoPortFound(packetDropped)
attr title "packets dropped (wrong port), count"
vector 241 Topology.BCUe[0].udp droppedPkBadChecksum:vector(count) ETV
attr interpolationmode none
attr recordingmode vector(count)
attr source packetDropReasonIsIncorrectlyReceived(packetDropped)
attr title "packets dropped (checksum error), count"
vector 242 Topology.BCUe[0].DSTT.phyLayer.interFrameGapInserter interpacketGap:vector ETV
attr interpolationmode sample-hold
attr recordingmode vector
attr source "count(interpacketGapStarted) - count(interpacketGapEnded)"
attr title "interpacket gap state"
attr type int
vector 243 Topology.BCUe[0].DSTT.phyLayer.transmitter transmitting:vector ETV
attr interpolationmode sample-hold
attr recordingmode vector
attr source "count(transmissionStarted) - count(transmissionEnded)"
attr title "transmitting state"
attr type int
vector 244 Topology.BCUe[1].udp passedUpPk:vector(count) ETV
attr interpolationmode none
attr recordingmode vector(count)
attr source packetSentToUpper
attr title "packets passed up, count"
vector 245 Topology.BCUe[1].udp droppedPkWrongPort:vector(count) ETV
attr interpolationmode none
attr recordingmode vector(count)
attr source packetDropReasonIsNoPortFound(packetDropped)
attr title "packets dropped (wrong port), count"
vector 246 Topology.BCUe[1].udp droppedPkBadChecksum:vector(count) ETV
attr interpolationmode none
attr recordingmode vector(count)
attr source packetDropReasonIsIncorrectlyReceived(packetDropped)
attr title "packets dropped (checksum error), count"
vector 247 Topology.BCUe[1].DSTT.phyLayer.interFrameGapInserter interpacketGap:vector ETV
attr interpolationmode sample-hold
attr recordingmode vector
attr source "count(interpacketGapStarted) - count(interpacketGapEnded)"
attr title "interpacket gap state"
attr type int
vector 248 Topology.BCUe[1].DSTT.phyLayer.transmitter transmitting:vector ETV
attr interpolationmode sample-hold
attr recordingmode vector
attr source "count(transmissionStarted) - count(transmissionEnded)"
attr title "transmitting state"
attr type int
vector 249 Topology.BCUe[2].udp passedUpPk:vector(count) ETV
attr interpolationmode none
attr recordingmode vector(count)
attr source packetSentToUpper
attr title "packets passed up, count"
vector 250 Topology.BCUe[2].udp droppedPkWrongPort:vector(count) ETV
attr interpolationmode none
attr recordingmode vector(count)
attr source packetDropReasonIsNoPortFound(packetDropped)
attr title "packets dropped (wrong port), count"
vector 251 Topology.BCUe[2].udp droppedPkBadChecksum:vector(count) ETV
attr interpolationmode none
attr recordingmode vector(count)
attr source packetDropReasonIsIncorrectlyReceived(packetDropped)
attr title "packets dropped (checksum error), count"
vector 252 Topology.BCUe[2].DSTT.phyLayer.interFrameGapInserter interpacketGap:vector ETV
attr interpolationmode sample-hold
attr recordingmode vector
attr source "count(interpacketGapStarted) - count(interpacketGapEnded)"
attr title "interpacket gap state"
attr type int
vector 253 Topology.BCUe[2].DSTT.phyLayer.transmitter transmitting:vector ETV
attr interpolationmode sample-hold
attr recordingmode vector
attr source "count(transmissionStarted) - count(transmissionEnded)"
attr title "transmitting state"
attr type int
vector 254 Topology.BCUe[3].udp passedUpPk:vector(count) ETV
attr interpolationmode none
attr recordingmode vector(count)
attr source packetSentToUpper
attr title "packets passed up, count"
vector 255 Topology.BCUe[3].udp droppedPkWrongPort:vector(count) ETV
attr interpolationmode none
attr recordingmode vector(count)
attr source packetDropReasonIsNoPortFound(packetDropped)
attr title "packets dropped (wrong port), count"
vector 256 Topology.BCUe[3].udp droppedPkBadChecksum:vector(count) ETV
attr interpolationmode none
attr recordingmode vector(count)
attr source packetDropReasonIsIncorrectlyReceived(packetDropped)
attr title "packets dropped (checksum error), count"
vector 257 Topology.BCUe[3].DSTT.phyLayer.interFrameGapInserter interpacketGap:vector ETV
attr interpolationmode sample-hold
attr recordingmode vector
attr source "count(interpacketGapStarted) - count(interpacketGapEnded)"
attr title "interpacket gap state"
attr type int
vector 258 Topology.BCUe[3].DSTT.phyLayer.transmitter transmitting:vector ETV
attr interpolationmode sample-hold
attr recordingmode vector
attr source "count(transmissionStarted) - count(transmissionEnded)"
attr title "transmitting state"
attr type int
vector 259 Topology.BCUe[4].udp passedUpPk:vector(count) ETV
attr interpolationmode none
attr recordingmode vector(count)
attr source packetSentToUpper
attr title "packets passed up, count"
vector 260 Topology.BCUe[4].udp droppedPkWrongPort:vector(count) ETV
attr interpolationmode none
attr recordingmode vector(count)
attr source packetDropReasonIsNoPortFound(packetDropped)
attr title "packets dropped (wrong port), count"
vector 261 Topology.BCUe[4].udp droppedPkBadChecksum:vector(count) ETV
attr interpolationmode none
attr recordingmode vector(count)
attr source packetDropReasonIsIncorrectlyReceived(packetDropped)
attr title "packets dropped (checksum error), count"
vector 262 Topology.BCUe[4].DSTT.phyLayer.interFrameGapInserter interpacketGap:vector ETV
attr interpolationmode sample-hold
attr recordingmode vector
attr source "count(interpacketGapStarted) - count(interpacketGapEnded)"
attr title "interpacket gap state"
attr type int
vector 263 Topology.BCUe[4].DSTT.phyLayer.transmitter transmitting:vector ETV
attr interpolationmode sample-hold
attr recordingmode vector
attr source "count(transmissionStarted) - count(transmissionEnded)"
attr title "transmitting state"
attr type int
vector 264 Topology.BCUe[5].udp passedUpPk:vector(count) ETV
attr interpolationmode none
attr recordingmode vector(count)
attr source packetSentToUpper
attr title "packets passed up, count"
vector 265 Topology.BCUe[5].udp droppedPkWrongPort:vector(count) ETV
attr interpolationmode none
attr recordingmode vector(count)
attr source packetDropReasonIsNoPortFound(packetDropped)
attr title "packets dropped (wrong port), count"
vector 266 Topology.BCUe[5].udp droppedPkBadChecksum:vector(count) ETV
attr interpolationmode none
attr recordingmode vector(count)
attr source packetDropReasonIsIncorrectlyReceived(packetDropped)
attr title "packets dropped (checksum error), count"
vector 267 Topology.BCUe[5].DSTT.phyLayer.interFrameGapInserter interpacketGap:vector ETV
attr interpolationmode sample-hold
attr recordingmode vector
attr source "count(interpacketGapStarted) - count(interpacketGapEnded)"
attr title "interpacket gap state"
attr type int
vector 268 Topology.BCUe[5].DSTT.phyLayer.transmitter transmitting:vector ETV
attr interpolationmode sample-hold
attr recordingmode vector
attr source "count(transmissionStarted) - count(transmissionEnded)"
attr title "transmitting state"
attr type int
vector 269 Topology.BCUe[6].udp passedUpPk:vector(count) ETV
attr interpolationmode none
attr recordingmode vector(count)
attr source packetSentToUpper
attr title "packets passed up, count"
vector 270 Topology.BCUe[6].udp droppedPkWrongPort:vector(count) ETV
attr interpolationmode none
attr recordingmode vector(count)
attr source packetDropReasonIsNoPortFound(packetDropped)
attr title "packets dropped (wrong port), count"
vector 271 Topology.BCUe[6].udp droppedPkBadChecksum:vector(count) ETV
attr interpolationmode none
attr recordingmode vector(count)
attr source packetDropReasonIsIncorrectlyReceived(packetDropped)
attr title "packets dropped (checksum error), count"
vector 272 Topology.BCUe[6].DSTT.phyLayer.interFrameGapInserter interpacketGap:vector ETV
attr interpolationmode sample-hold
attr recordingmode vector
attr source "count(interpacketGapStarted) - count(interpacketGapEnded)"
attr title "interpacket gap state"
attr type int
vector 273 Topology.BCUe[6].DSTT.phyLayer.transmitter transmitting:vector ETV
attr interpolationmode sample-hold
attr recordingmode vector
attr source "count(transmissionStarted) - count(transmissionEnded)"
attr title "transmitting state"
attr type int
vector 274 Topology.BCUe[7].udp passedUpPk:vector(count) ETV
attr interpolationmode none
attr recordingmode vector(count)
attr source packetSentToUpper
attr title "packets passed up, count"
vector 275 Topology.BCUe[7].udp droppedPkWrongPort:vector(count) ETV
attr interpolationmode none
attr recordingmode vector(count)
attr source packetDropReasonIsNoPortFound(packetDropped)
attr title "packets dropped (wrong port), count"
vector 276 Topology.BCUe[7].udp droppedPkBadChecksum:vector(count) ETV
attr interpolationmode none
attr recordingmode vector(count)
attr source packetDropReasonIsIncorrectlyReceived(packetDropped)
attr title "packets dropped (checksum error), count"
vector 277 Topology.BCUe[7].DSTT.phyLayer.interFrameGapInserter interpacketGap:vector ETV
attr interpolationmode sample-hold
attr recordingmode vector
attr source "count(interpacketGapStarted) - count(interpacketGapEnded)"
attr title "interpacket gap state"
attr type int
vector 278 Topology.BCUe[7].DSTT.phyLayer.transmitter transmitting:vector ETV
attr interpolationmode sample-hold
attr recordingmode vector
attr source "count(transmissionStarted) - count(transmissionEnded)"
attr title "transmitting state"
attr type int
vector 279 Topology.TCUClient[0].eth[0].phyLayer.interFrameGapInserter interpacketGap:vector ETV
attr interpolationmode sample-hold
attr recordingmode vector
attr source "count(interpacketGapStarted) - count(interpacketGapEnded)"
attr title "interpacket gap state"
attr type int
vector 280 Topology.TCUClient[0].eth[0].phyLayer.transmitter transmitting:vector ETV
attr interpolationmode sample-hold
attr recordingmode vector
attr source "count(transmissionStarted) - count(transmissionEnded)"
attr title "transmitting state"
attr type int
vector 281 Topology.TCUClient[0].udp passedUpPk:vector(count) ETV
attr interpolationmode none
attr recordingmode vector(count)
attr source packetSentToUpper
attr title "packets passed up, count"
vector 282 Topology.TCUClient[0].udp droppedPkWrongPort:vector(count) ETV
attr interpolationmode none
attr recordingmode vector(count)
attr source packetDropReasonIsNoPortFound(packetDropped)
attr title "packets dropped (wrong port), count"
vector 283 Topology.TCUClient[0].udp droppedPkBadChecksum:vector(count) ETV
attr interpolationmode none
attr recordingmode vector(count)
attr source packetDropReasonIsIncorrectlyReceived(packetDropped)
attr title "packets dropped (checksum error), count"
vector 284 Topology.TCUClient[1].eth[0].phyLayer.interFrameGapInserter interpacketGap:vector ETV
attr interpolationmode sample-hold
attr recordingmode vector
attr source "count(interpacketGapStarted) - count(interpacketGapEnded)"
attr title "interpacket gap state"
attr type int
vector 285 Topology.TCUClient[1].eth[0].phyLayer.transmitter transmitting:vector ETV
attr interpolationmode sample-hold
attr recordingmode vector
attr source "count(transmissionStarted) - count(transmissionEnded)"
attr title "transmitting state"
attr type int
vector 286 Topology.TCUClient[1].udp passedUpPk:vector(count) ETV
attr interpolationmode none
attr recordingmode vector(count)
attr source packetSentToUpper
attr title "packets passed up, count"
vector 287 Topology.TCUClient[1].udp droppedPkWrongPort:vector(count) ETV
attr interpolationmode none
attr recordingmode vector(count)
attr source packetDropReasonIsNoPortFound(packetDropped)
attr title "packets dropped (wrong port), count"
vector 288 Topology.TCUClient[1].udp droppedPkBadChecksum:vector(count) ETV
attr interpolationmode none
attr recordingmode vector(count)
attr source packetDropReasonIsIncorrectlyReceived(packetDropped)
attr title "packets dropped (checksum error), count"
vector 289 Topology.TCUClient[2].eth[0].phyLayer.interFrameGapInserter interpacketGap:vector ETV
attr interpolationmode sample-hold
attr recordingmode vector
[...]
3403	2408443 18 50224 50224 0.09 0.09 1 0 0 0 0
3404	2408461 18 50224 50224 0.09 0.09 1 0 0 0 0
3405	2408479 18 50224 50224 0.09 0.09 1 0 0 0 0
3406	2408497 18 50224 50224 0.09 0.09 1 0 0 0 0
3407	2408515 18 50224 50224 0.09 0.09 1 0 0 0 0
3408	2408533 18 50224 50224 0.09 0.09 1 0 0 0 0
3409	2408551 18 50224 50224 0.09 0.09 1 0 0 0 0
3410	2408569 18 50224 50224 0.09 0.09 1 0 0 0 0
3411	2408587 18 50224 50224 0.09 0.09 1 0 0 0 0
3412	2408605 18 50224 50224 0.09 0.09 1 0 0 0 0
3413	2408623 18 50224 50224 0.09 0.09 1 0 0 0 0
3414	2408641 18 50224 50224 0.09 0.09 1 0 0 0 0
3415	2408659 18 50224 50224 0.09 0.09 1 0 0 0 0
3416	2408677 18 50224 50224 0.09 0.09 1 0 0 0 0
3417	2408695 18 50224 50224 0.09 0.09 1 0 0 0 0
3418	2408713 18 50224 50224 0.09 0.09 1 0 0 0 0
3419	2408731 18 50224 50224 0.09 0.09 1 0 0 0 0
3420	2408749 18 50224 50224 0.09 0.09 1 0 0 0 0
3421	2408767 18 50224 50224 0.09 0.09 1 0 0 0 0
3422	2408785 18 50224 50224 0.09 0.09 1 0 0 0 0
3423	2408803 18 50224 50224 0.09 0.09 1 0 0 0 0
3424	2408821 18 50224 50224 0.09 0.09 1 0 0 0 0
3425	2408839 18 50224 50224 0.09 0.09 1 0 0 0 0
3426	2408857 18 50224 50224 0.09 0.09 1 0 0 0 0
3427	2408875 18 50224 50224 0.09 0.09 1 0 0 0 0
3428	2408893 32 50224 50224 0.09 0.09 1 3720888.8888889 3720888.8888889 3720888.8888889 13845014123457
3429	2408925 18 50224 50224 0.09 0.09 1 0 0 0 0
3430	2408943 18 50224 50224 0.09 0.09 1 0 0 0 0
3431	2408961 18 50224 50224 0.09 0.09 1 0 0 0 0
3432	2408979 18 50224 50224 0.09 0.09 1 0 0 0 0
3433	2408997 18 50224 50224 0.09 0.09 1 0 0 0 0
3434	2409015 18 50224 50224 0.09 0.09 1 0 0 0 0
3435	2409033 18 50224 50224 0.09 0.09 1 0 0 0 0
3436	2409051 18 50224 50224 0.09 0.09 1 0 0 0 0
3437	2409069 18 50224 50224 0.09 0.09 1 0 0 0 0
3438	2409087 18 50224 50224 0.09 0.09 1 0 0 0 0
3439	2409105 18 50224 50224 0.09 0.09 1 0 0 0 0
3440	2409123 18 50224 50224 0.09 0.09 1 0 0 0 0
3441	2409141 18 50224 50224 0.09 0.09 1 0 0 0 0
3442	2409159 18 50224 50224 0.09 0.09 1 0 0 0 0
3443	2409177 18 50224 50224 0.09 0.09 1 0 0 0 0
3444	2409195 32 50224 50224 0.09 0.09 1 3720888.8888889 3720888.8888889 3720888.8888889 13845014123457
3445	2409227 18 50224 50224 0.09 0.09 1 0 0 0 0
3446	2409245 18 50224 50224 0.09 0.09 1 0 0 0 0
3447	2409263 18 50224 50224 0.09 0.09 1 0 0 0 0
3448	2409281 18 50224 50224 0.09 0.09 1 0 0 0 0
3449	2409299 18 50224 50224 0.09 0.09 1 0 0 0 0
3450	2409317 18 50224 50224 0.09 0.09 1 0 0 0 0
3451	2409335 18 50224 50224 0.09 0.09 1 0 0 0 0
3452	2409353 18 50224 50224 0.09 0.09 1 0 0 0 0
3453	2409371 18 50224 50224 0.09 0.09 1 0 0 0 0
3454	2409389 18 50224 50224 0.09 0.09 1 0 0 0 0
3455	2409407 18 50224 50224 0.09 0.09 1 0 0 0 0
3456	2409425 18 50224 50224 0.09 0.09 1 0 0 0 0
3457	2409443 18 50224 50224 0.09 0.09 1 0 0 0 0
3458	2409461 18 50224 50224 0.09 0.09 1 0 0 0 0
3459	2409479 18 50224 50224 0.09 0.09 1 0 0 0 0
3460	2409497 32 50224 50224 0.09 0.09 1 3720888.8888889 3720888.8888889 3720888.8888889 13845014123457
3461	2409529 18 50224 50224 0.09 0.09 1 0 0 0 0
3462	2409547 18 50224 50224 0.09 0.09 1 0 0 0 0
3463	2409565 18 50224 50224 0.09 0.09 1 0 0 0 0
3464	2409583 18 50224 50224 0.09 0.09 1 0 0 0 0
3465	2409601 18 50224 50224 0.09 0.09 1 0 0 0 0
3466	2409619 18 50224 50224 0.09 0.09 1 0 0 0 0
3467	2409637 18 50224 50224 0.09 0.09 1 0 0 0 0
3468	2409655 18 50224 50224 0.09 0.09 1 0 0 0 0
3469	2409673 18 50224 50224 0.09 0.09 1 0 0 0 0
3470	2409691 18 50224 50224 0.09 0.09 1 0 0 0 0
3471	2409709 18 50224 50224 0.09 0.09 1 0 0 0 0
3472	2409727 18 50224 50224 0.09 0.09 1 0 0 0 0
3473	2409745 18 50224 50224 0.09 0.09 1 0 0 0 0
3474	2409763 18 50224 50224 0.09 0.09 1 0 0 0 0
3475	2409781 18 50224 50224 0.09 0.09 1 0 0 0 0
3476	2409799 32 50224 50224 0.09 0.09 1 3720888.8888889 3720888.8888889 3720888.8888889 13845014123457
3477	2409831 18 50224 50224 0.09 0.09 1 0 0 0 0
3478	2409849 18 50224 50224 0.09 0.09 1 0 0 0 0
3479	2409867 18 50224 50224 0.09 0.09 1 0 0 0 0
3480	2409885 18 50224 50224 0.09 0.09 1 0 0 0 0
3481	2409903 18 50224 50224 0.09 0.09 1 0 0 0 0
3482	2409921 18 50224 50224 0.09 0.09 1 0 0 0 0
3483	2409939 18 50224 50224 0.09 0.09 1 0 0 0 0
3484	2409957 18 50224 50224 0.09 0.09 1 0 0 0 0
3485	2409975 18 50224 50224 0.09 0.09 1 0 0 0 0
3486	2409993 18 50224 50224 0.09 0.09 1 0 0 0 0
3487	2410011 18 50224 50224 0.09 0.09 1 0 0 0 0
3488	2410029 18 50224 50224 0.09 0.09 1 0 0 0 0
3489	2410047 18 50224 50224 0.09 0.09 1 0 0 0 0
3490	2410065 18 50224 50224 0.09 0.09 1 0 0 0 0
3491	2410083 18 50224 50224 0.09 0.09 1 0 0 0 0
3492	2410101 32 50224 50224 0.09 0.09 1 3720888.8888889 3720888.8888889 3720888.8888889 13845014123457
3493	2410133 18 50224 50224 0.09 0.09 1 0 0 0 0
3494	2410151 18 50224 50224 0.09 0.09 1 0 0 0 0
3495	2410169 18 50224 50224 0.09 0.09 1 0 0 0 0
3496	2410187 18 50224 50224 0.09 0.09 1 0 0 0 0
3497	2410205 18 50224 50224 0.09 0.09 1 0 0 0 0
3498	2410223 18 50224 50224 0.09 0.09 1 0 0 0 0
3499	2410241 18 50224 50224 0.09 0.09 1 0 0 0 0
3500	2410259 18 50224 50224 0.09 0.09 1 0 0 0 0
3501	2410277 18 50224 50224 0.09 0.09 1 0 0 0 0
3502	2410295 18 50224 50224 0.09 0.09 1 0 0 0 0
3503	2410313 18 50224 50224 0.09 0.09 1 0 0 0 0
3504	2410331 18 50224 50224 0.09 0.09 1 0 0 0 0
3505	2410349 18 50224 50224 0.09 0.09 1 0 0 0 0
3506	2410367 18 50224 50224 0.09 0.09 1 0 0 0 0
3507	2410385 18 50224 50224 0.09 0.09 1 0 0 0 0
3508	2410403 32 50224 50224 0.09 0.09 1 3720888.8888889 3720888.8888889 3720888.8888889 13845014123457
3509	2410435 18 50224 50224 0.09 0.09 1 0 0 0 0
3510	2410453 18 50224 50224 0.09 0.09 1 0 0 0 0
3511	2410471 18 50224 50224 0.09 0.09 1 0 0 0 0
3512	2410489 18 50224 50224 0.09 0.09 1 0 0 0 0
3513	2410507 18 50224 50224 0.09 0.09 1 0 0 0 0
3514	2410525 18 50224 50224 0.09 0.09 1 0 0 0 0
3515	2410543 18 50224 50224 0.09 0.09 1 0 0 0 0
3516	2410561 18 50224 50224 0.09 0.09 1 0 0 0 0
3517	2410579 18 50224 50224 0.09 0.09 1 0 0 0 0
3518	2410597 18 50224 50224 0.09 0.09 1 0 0 0 0
3519	2410615 18 50224 50224 0.09 0.09 1 0 0 0 0
3520	2410633 18 50224 50224 0.09 0.09 1 0 0 0 0
3521	2410651 18 50224 50224 0.09 0.09 1 0 0 0 0
3522	2410669 18 50224 50224 0.09 0.09 1 0 0 0 0
3523	2410687 18 50224 50224 0.09 0.09 1 0 0 0 0
3524	2410705 32 50224 50224 0.09 0.09 1 3720888.8888889 3720888.8888889 3720888.8888889 13845014123457
3525	2410737 18 50224 50224 0.09 0.09 1 0 0 0 0
3526	2410755 18 50224 50224 0.09 0.09 1 0 0 0 0
3527	2410773 18 50224 50224 0.09 0.09 1 0 0 0 0
3528	2410791 18 50224 50224 0.09 0.09 1 0 0 0 0
3529	2410809 18 50224 50224 0.09 0.09 1 0 0 0 0
3530	2410827 18 50224 50224 0.09 0.09 1 0 0 0 0
3531	2410845 18 50224 50224 0.09 0.09 1 0 0 0 0
3532	2410863 18 50224 50224 0.09 0.09 1 0 0 0 0
3533	2410881 18 50224 50224 0.09 0.09 1 0 0 0 0
3534	2410899 18 50224 50224 0.09 0.09 1 0 0 0 0
3535	2410917 18 50224 50224 0.09 0.09 1 0 0 0 0
3536	2410935 18 50224 50224 0.09 0.09 1 0 0 0 0
3537	2410953 18 50224 50224 0.09 0.09 1 0 0 0 0
3538	2410971 18 50224 50224 0.09 0.09 1 0 0 0 0
3539	2410989 18 50224 50224 0.09 0.09 1 0 0 0 0
3540	2411007 32 50224 50224 0.09 0.09 1 3720888.8888889 3720888.8888889 3720888.8888889 13845014123457
3541	2411039 18 50224 50224 0.09 0.09 1 0 0 0 0
3542	2411057 18 50224 50224 0.09 0.09 1 0 0 0 0
3543	2411075 18 50224 50224 0.09 0.09 1 0 0 0 0
3544	2411093 18 50224 50224 0.09 0.09 1 0 0 0 0
3545	2411111 18 50224 50224 0.09 0.09 1 0 0 0 0
3546	2411129 18 50224 50224 0.09 0.09 1 0 0 0 0
3547	2411147 18 50224 50224 0.09 0.09 1 0 0 0 0
3548	2411165 18 50224 50224 0.09 0.09 1 0 0 0 0
3549	2411183 18 50224 50224 0.09 0.09 1 0 0 0 0
3550	2411201 18 50224 50224 0.09 0.09 1 0 0 0 0
3551	2411219 18 50224 50224 0.09 0.09 1 0 0 0 0
3552	2411237 18 50224 50224 0.09 0.09 1 0 0 0 0
3553	2411255 18 50224 50224 0.09 0.09 1 0 0 0 0
3554	2411273 18 50224 50224 0.09 0.09 1 0 0 0 0
3555	2411291 18 50224 50224 0.09 0.09 1 0 0 0 0
3556	2411309 18 50224 50224 0.09 0.09 1 0 0 0 0
3557	2411327 18 50224 50224 0.09 0.09 1 0 0 0 0
3558	2411345 18 50224 50224 0.09 0.09 1 0 0 0 0
3559	2411363 18 50224 50224 0.09 0.09 1 0 0 0 0
3560	2411381 18 50224 50224 0.09 0.09 1 0 0 0 0
3561	2411399 18 50224 50224 0.09 0.09 1 0 0 0 0
3562	2411417 18 50224 50224 0.09 0.09 1 0 0 0 0
3563	2411435 18 50224 50224 0.09 0.09 1 0 0 0 0
3564	2411453 18 50224 50224 0.09 0.09 1 0 0 0 0
3565	2411471 18 50224 50224 0.09 0.09 1 0 0 0 0
3566	2411489 18 50224 50224 0.09 0.09 1 0 0 0 0
3567	2411507 18 50224 50224 0.09 0.09 1 0 0 0 0
3568	2411525 18 50224 50224 0.09 0.09 1 0 0 0 0
3569	2411543 18 50224 50224 0.09 0.09 1 0 0 0 0
3570	2411561 18 50224 50224 0.09 0.09 1 0 0 0 0
3571	2411579 18 50224 50224 0.09 0.09 1 0 0 0 0
3572	2411597 18 50224 50224 0.09 0.09 1 0 0 0 0
3573	2411615 18 50224 50224 0.09 0.09 1 0 0 0 0
3574	2411633 18 50224 50224 0.09 0.09 1 0 0 0 0
3575	2411651 18 50224 50224 0.09 0.09 1 0 0 0 0
3576	2411669 18 50224 50224 0.09 0.09 1 0 0 0 0
3577	2411687 18 50224 50224 0.09 0.09 1 0 0 0 0
3578	2411705 18 50224 50224 0.09 0.09 1 0 0 0 0
3579	2411723 18 50224 50224 0.09 0.09 1 0 0 0 0
3580	2411741 18 50224 50224 0.09 0.09 1 0 0 0 0
3581	2411759 18 50224 50224 0.09 0.09 1 0 0 0 0
3582	2411777 18 50224 50224 0.09 0.09 1 0 0 0 0
3583	2411795 18 50224 50224 0.09 0.09 1 0 0 0 0
3584	2411813 18 50224 50224 0.09 0.09 1 0 0 0 0
3585	2411831 18 50224 50224 0.09 0.09 1 0 0 0 0
3586	2411849 18 50224 50224 0.09 0.09 1 0 0 0 0
3587	2411867 18 50224 50224 0.09 0.09 1 0 0 0 0
3588	2411885 18 50224 50224 0.09 0.09 1 0 0 0 0
3589	2411903 18 50224 50224 0.09 0.09 1 0 0 0 0
3590	2411921 18 50224 50224 0.09 0.09 1 0 0 0 0
3591	2411939 18 50224 50224 0.09 0.09 1 0 0 0 0
3592	2411957 18 50224 50224 0.09 0.09 1 0 0 0 0
3593	2411975 18 50224 50224 0.09 0.09 1 0 0 0 0
3594	2411993 18 50224 50224 0.09 0.09 1 0 0 0 0
3595	2412011 18 50224 50224 0.09 0.09 1 0 0 0 0
3596	2412029 18 50224 50224 0.09 0.09 1 0 0 0 0
3597	2412047 18 50224 50224 0.09 0.09 1 0 0 0 0
3598	2412065 18 50224 50224 0.09 0.09 1 0 0 0 0
3599	2412083 18 50224 50224 0.09 0.09 1 0 0 0 0
3600	2412101 18 50224 50224 0.09 0.09 1 0 0 0 0
3601	2412119 18 50224 50224 0.09 0.09 1 0 0 0 0
3602	2412137 18 50224 50224 0.09 0.09 1 0 0 0 0
3603	2412155 18 50224 50224 0.09 0.09 1 0 0 0 0
3604	2412173 18 50224 50224 0.09 0.09 1 0 0 0 0
3605	2412191 18 50224 50224 0.09 0.09 1 0 0 0 0
3606	2412209 18 50224 50224 0.09 0.09 1 0 0 0 0
3607	2412227 18 50224 50224 0.09 0.09 1 0 0 0 0
3608	2412245 18 50224 50224 0.09 0.09 1 0 0 0 0
3609	2412263 18 50224 50224 0.09 0.09 1 0 0 0 0
3610	2412281 18 50224 50224 0.09 0.09 1 0 0 0 0
3611	2412299 18 50224 50224 0.09 0.09 1 0 0 0 0
3612	2412317 18 50224 50224 0.09 0.09 1 0 0 0 0
3613	2412335 18 50224 50224 0.09 0.09 1 0 0 0 0
3614	2412353 18 50224 50224 0.09 0.09 1 0 0 0 0
3615	2412371 18 50224 50224 0.09 0.09 1 0 0 0 0
3616	2412389 18 50224 50224 0.09 0.09 1 0 0 0 0
3617	2412407 18 50224 50224 0.09 0.09 1 0 0 0 0
3618	2412425 18 50224 50224 0.09 0.09 1 0 0 0 0
3619	2412443 18 50224 50224 0.09 0.09 1 0 0 0 0
3620	2412461 32 50224 50224 0.09 0.09 1 3720888.8888889 3720888.8888889 3720888.8888889 13845014123457
3621	2412493 18 50224 50224 0.09 0.09 1 0 0 0 0
3622	2412511 18 50224 50224 0.09 0.09 1 0 0 0 0
3623	2412529 18 50224 50224 0.09 0.09 1 0 0 0 0
3624	2412547 18 50224 50224 0.09 0.09 1 0 0 0 0
3625	2412565 18 50224 50224 0.09 0.09 1 0 0 0 0
3626	2412583 18 50224 50224 0.09 0.09 1 0 0 0 0
3627	2412601 18 50224 50224 0.09 0.09 1 0 0 0 0
3628	2412619 18 50224 50224 0.09 0.09 1 0 0 0 0
3629	2412637 18 50224 50224 0.09 0.09 1 0 0 0 0
3630	2412655 18 50224 50224 0.09 0.09 1 0 0 0 0
3631	2412673 18 50224 50224 0.09 0.09 1 0 0 0 0
3632	2412691 18 50224 50224 0.09 0.09 1 0 0 0 0
3633	2412709 18 50224 50224 0.09 0.09 1 0 0 0 0
3634	2412727 18 50224 50224 0.09 0.09 1 0 0 0 0
3635	2412745 18 50224 50224 0.09 0.09 1 0 0 0 0
3636	2412763 32 50224 50224 0.09 0.09 1 3720888.8888889 3720888.8888889 3720888.8888889 13845014123457
3637	2412795 18 50224 50224 0.09 0.09 1 0 0 0 0
3638	2412813 18 50224 50224 0.09 0.09 1 0 0 0 0
3639	2412831 18 50224 50224 0.09 0.09 1 0 0 0 0
3640	2412849 18 50224 50224 0.09 0.09 1 0 0 0 0
3641	2412867 18 50224 50224 0.09 0.09 1 0 0 0 0
3642	2412885 18 50224 50224 0.09 0.09 1 0 0 0 0
3643	2412903 18 50224 50224 0.09 0.09 1 0 0 0 0
3644	2412921 18 50224 50224 0.09 0.09 1 0 0 0 0
3645	2412939 18 50224 50224 0.09 0.09 1 0 0 0 0
3646	2412957 18 50224 50224 0.09 0.09 1 0 0 0 0
3647	2412975 18 50224 50224 0.09 0.09 1 0 0 0 0
3648	2412993 18 50224 50224 0.09 0.09 1 0 0 0 0
3649	2413011 18 50224 50224 0.09 0.09 1 0 0 0 0
3650	2413029 18 50224 50224 0.09 0.09 1 0 0 0 0
3651	2413047 18 50224 50224 0.09 0.09 1 0 0 0 0
3652	2413065 32 50224 50224 0.09 0.09 1 3720888.8888889 3720888.8888889 3720888.8888889 13845014123457
3653	2413097 18 50224 50224 0.09 0.09 1 0 0 0 0
3654	2413115 18 50224 50224 0.09 0.09 1 0 0 0 0
3655	2413133 18 50224 50224 0.09 0.09 1 0 0 0 0
3656	2413151 18 50224 50224 0.09 0.09 1 0 0 0 0
3657	2413169 18 50224 50224 0.09 0.09 1 0 0 0 0
3658	2413187 18 50224 50224 0.09 0.09 1 0 0 0 0
3659	2413205 18 50224 50224 0.09 0.09 1 0 0 0 0
3660	2413223 18 50224 50224 0.09 0.09 1 0 0 0 0
3661	2413241 18 50224 50224 0.09 0.09 1 0 0 0 0
3662	2413259 18 50224 50224 0.09 0.09 1 0 0 0 0
3663	2413277 18 50224 50224 0.09 0.09 1 0 0 0 0
3664	2413295 18 50224 50224 0.09 0.09 1 0 0 0 0
3665	2413313 18 50224 50224 0.09 0.09 1 0 0 0 0
3666	2413331 18 50224 50224 0.09 0.09 1 0 0 0 0
3667	2413349 18 50224 50224 0.09 0.09 1 0 0 0 0
3668	2413367 32 50224 50224 0.09 0.09 1 3720888.8888889 3720888.8888889 3720888.8888889 13845014123457
3669	2413399 18 50224 50224 0.09 0.09 1 0 0 0 0
3670	2413417 18 50224 50224 0.09 0.09 1 0 0 0 0
3671	2413435 18 50224 50224 0.09 0.09 1 0 0 0 0
3672	2413453 18 50224 50224 0.09 0.09 1 0 0 0 0
3673	2413471 18 50224 50224 0.09 0.09 1 0 0 0 0
3674	2413489 18 50224 50224 0.09 0.09 1 0 0 0 0
3675	2413507 18 50224 50224 0.09 0.09 1 0 0 0 0
3676	2413525 18 50224 50224 0.09 0.09 1 0 0 0 0
3677	2413543 18 50224 50224 0.09 0.09 1 0 0 0 0
3678	2413561 18 50224 50224 0.09 0.09 1 0 0 0 0
3679	2413579 18 50224 50224 0.09 0.09 1 0 0 0 0
3680	2413597 18 50224 50224 0.09 0.09 1 0 0 0 0
3681	2413615 18 50224 50224 0.09 0.09 1 0 0 0 0
3682	2413633 18 50224 50224 0.09 0.09 1 0 0 0 0
3683	2413651 18 50224 50224 0.09 0.09 1 0 0 0 0
3684	2413669 32 50224 50224 0.09 0.09 1 3720888.8888889 3720888.8888889 3720888.8888889 13845014123457
3685	2413701 18 50224 50224 0.09 0.09 1 0 0 0 0
3686	2413719 18 50224 50224 0.09 0.09 1 0 0 0 0
3687	2413737 18 50224 50224 0.09 0.09 1 0 0 0 0
3688	2413755 18 50224 50224 0.09 0.09 1 0 0 0 0
3689	2413773 18 50224 50224 0.09 0.09 1 0 0 0 0
3690	2413791 18 50224 50224 0.09 0.09 1 0 0 0 0
3691	2413809 18 50224 50224 0.09 0.09 1 0 0 0 0
3692	2413827 18 50224 50224 0.09 0.09 1 0 0 0 0
3693	2413845 18 50224 50224 0.09 0.09 1 0 0 0 0
3694	2413863 18 50224 50224 0.09 0.09 1 0 0 0 0
3695	2413881 18 50224 50224 0.09 0.09 1 0 0 0 0
3696	2413899 18 50224 50224 0.09 0.09 1 0 0 0 0
3697	2413917 18 50224 50224 0.09 0.09 1 0 0 0 0
3698	2413935 18 50224 50224 0.09 0.09 1 0 0 0 0
3699	2413953 18 50224 50224 0.09 0.09 1 0 0 0 0
3700	2413971 32 50224 50224 0.09 0.09 1 3720888.8888889 3720888.8888889 3720888.8888889 13845014123457
3701	2414003 18 50224 50224 0.09 0.09 1 0 0 0 0
3702	2414021 18 50224 50224 0.09 0.09 1 0 0 0 0
3703	2414039 18 50224 50224 0.09 0.09 1 0 0 0 0
3704	2414057 18 50224 50224 0.09 0.09 1 0 0 0 0
3705	2414075 18 50224 50224 0.09 0.09 1 0 0 0 0
3706	2414093 18 50224 50224 0.09 0.09 1 0 0 0 0
3707	2414111 18 50224 50224 0.09 0.09 1 0 0 0 0
3708	2414129 18 50224 50224 0.09 0.09 1 0 0 0 0
3709	2414147 18 50224 50224 0.09 0.09 1 0 0 0 0
3710	2414165 18 50224 50224 0.09 0.09 1 0 0 0 0
3711	2414183 18 50224 50224 0.09 0.09 1 0 0 0 0
3712	2414201 18 50224 50224 0.09 0.09 1 0 0 0 0
3713	2414219 18 50224 50224 0.09 0.09 1 0 0 0 0
3714	2414237 18 50224 50224 0.09 0.09 1 0 0 0 0
3715	2414255 18 50224 50224 0.09 0.09 1 0 0 0 0
3716	2414273 32 50224 50224 0.09 0.09 1 3720888.8888889 3720888.8888889 3720888.8888889 13845014123457
3717	2414305 18 50224 50224 0.09 0.09 1 0 0 0 0
3718	2414323 18 50224 50224 0.09 0.09 1 0 0 0 0
3719	2414341 18 50224 50224 0.09 0.09 1 0 0 0 0
3720	2414359 18 50224 50224 0.09 0.09 1 0 0 0 0
3721	2414377 18 50224 50224 0.09 0.09 1 0 0 0 0
3722	2414395 18 50224 50224 0.09 0.09 1 0 0 0 0
3723	2414413 18 50224 50224 0.09 0.09 1 0 0 0 0
3724	2414431 18 50224 50224 0.09 0.09 1 0 0 0 0
3725	2414449 18 50224 50224 0.09 0.09 1 0 0 0 0
3726	2414467 18 50224 50224 0.09 0.09 1 0 0 0 0
3727	2414485 18 50224 50224 0.09 0.09 1 0 0 0 0
3728	2414503 18 50224 50224 0.09 0.09 1 0 0 0 0
3729	2414521 18 50224 50224 0.09 0.09 1 0 0 0 0
3730	2414539 18 50224 50224 0.09 0.09 1 0 0 0 0
3731	2414557 18 50224 50224 0.09 0.09 1 0 0 0 0
3732	2414575 32 50224 50224 0.09 0.09 1 3720888.8888889 3720888.8888889 3720888.8888889 13845014123457
3733	2414607 18 50224 50224 0.09 0.09 1 0 0 0 0
3734	2414625 18 50224 50224 0.09 0.09 1 0 0 0 0
3735	2414643 18 50224 50224 0.09 0.09 1 0 0 0 0
3736	2414661 18 50224 50224 0.09 0.09 1 0 0 0 0
3737	2414679 18 50224 50224 0.09 0.09 1 0 0 0 0
3738	2414697 18 50224 50224 0.09 0.09 1 0 0 0 0
3739	2414715 18 50224 50224 0.09 0.09 1 0 0 0 0
3740	2414733 18 50224 50224 0.09 0.09 1 0 0 0 0
3741	2414751 18 50224 50224 0.09 0.09 1 0 0 0 0
3742	2414769 18 50224 50224 0.09 0.09 1 0 0 0 0
3743	2414787 18 50224 50224 0.09 0.09 1 0 0 0 0
3744	2414805 18 50224 50224 0.09 0.09 1 0 0 0 0
3745	2414823 18 50224 50224 0.09 0.09 1 0 0 0 0
3746	2414841 18 50224 50224 0.09 0.09 1 0 0 0 0
3747	2414859 18 50224 50224 0.09 0.09 1 0 0 0 0
3748	2414877 18 50224 50224 0.09 0.09 1 0 0 0 0
3749	2414895 18 50224 50224 0.09 0.09 1 0 0 0 0
3750	2414913 18 50224 50224 0.09 0.09 1 0 0 0 0
3751	2414931 18 50224 50224 0.09 0.09 1 0 0 0 0
3752	2414949 18 50224 50224 0.09 0.09 1 0 0 0 0
3753	2414967 18 50224 50224 0.09 0.09 1 0 0 0 0
3754	2414985 18 50224 50224 0.09 0.09 1 0 0 0 0
3755	2415003 18 50224 50224 0.09 0.09 1 0 0 0 0
3756	2415021 18 50224 50224 0.09 0.09 1 0 0 0 0
3757	2415039 18 50224 50224 0.09 0.09 1 0 0 0 0
3758	2415057 18 50224 50224 0.09 0.09 1 0 0 0 0
3759	2415075 18 50224 50224 0.09 0.09 1 0 0 0 0
3760	2415093 18 50224 50224 0.09 0.09 1 0 0 0 0
3761	2415111 18 50224 50224 0.09 0.09 1 0 0 0 0
3762	2415129 18 50224 50224 0.09 0.09 1 0 0 0 0
3763	2415147 18 50224 50224 0.09 0.09 1 0 0 0 0
3764	2415165 18 50224 50224 0.09 0.09 1 0 0 0 0
3765	2415183 18 50224 50224 0.09 0.09 1 0 0 0 0
3766	2415201 18 50224 50224 0.09 0.09 1 0 0 0 0
3767	2415219 18 50224 50224 0.09 0.09 1 0 0 0 0
3768	2415237 18 50224 50224 0.09 0.09 1 0 0 0 0
3769	2415255 18 50224 50224 0.09 0.09 1 0 0 0 0
3770	2415273 18 50224 50224 0.09 0.09 1 0 0 0 0
3771	2415291 18 50224 50224 0.09 0.09 1 0 0 0 0
3772	2415309 18 50224 50224 0.09 0.09 1 0 0 0 0
3773	2415327 18 50224 50224 0.09 0.09 1 0 0 0 0
3774	2415345 18 50224 50224 0.09 0.09 1 0 0 0 0
3775	2415363 18 50224 50224 0.09 0.09 1 0 0 0 0
3776	2415381 18 50224 50224 0.09 0.09 1 0 0 0 0
3777	2415399 18 50224 50224 0.09 0.09 1 0 0 0 0
3778	2415417 18 50224 50224 0.09 0.09 1 0 0 0 0
3779	2415435 18 50224 50224 0.09 0.09 1 0 0 0 0
3780	2415453 18 50224 50224 0.09 0.09 1 0 0 0 0
3781	2415471 18 50224 50224 0.09 0.09 1 0 0 0 0
3782	2415489 18 50224 50224 0.09 0.09 1 0 0 0 0
3783	2415507 18 50224 50224 0.09 0.09 1 0 0 0 0
3784	2415525 18 50224 50224 0.09 0.09 1 0 0 0 0
3785	2415543 18 50224 50224 0.09 0.09 1 0 0 0 0
3786	2415561 18 50224 50224 0.09 0.09 1 0 0 0 0
3787	2415579 18 50224 50224 0.09 0.09 1 0 0 0 0
3788	2415597 18 50224 50224 0.09 0.09 1 0 0 0 0
3789	2415615 18 50224 50224 0.09 0.09 1 0 0 0 0
3790	2415633 18 50224 50224 0.09 0.09 1 0 0 0 0
3791	2415651 18 50224 50224 0.09 0.09 1 0 0 0 0
3792	2415669 18 50224 50224 0.09 0.09 1 0 0 0 0
3793	2415687 18 50224 50224 0.09 0.09 1 0 0 0 0
3794	2415705 18 50224 50224 0.09 0.09 1 0 0 0 0
3795	2415723 18 50224 50224 0.09 0.09 1 0 0 0 0
3796	2415741 18 50224 50224 0.09 0.09 1 0 0 0 0
3797	2415759 18 50224 50224 0.09 0.09 1 0 0 0 0
3798	2415777 18 50224 50224 0.09 0.09 1 0 0 0 0
3799	2415795 18 50224 50224 0.09 0.09 1 0 0 0 0
3800	2415813 18 50224 50224 0.09 0.09 1 0 0 0 0

