version 3
run S2C-0-20241008-11:16:54-4579
attr configname S2C
attr datetime 20241008-11:16:54
attr datetimef 20241008-111654
attr experiment S2C
attr inifile omnetpp.ini
attr iterationvars ""
attr iterationvarsd ""
attr iterationvarsf ""
attr measurement ""
attr network S2C
attr processid 4579
attr repetition 0
attr replication #0
attr resultdir results
attr runnumber 0
attr seedset 0
config image-path ../../../Downloads/TSN5G-master/inet4.5/images:../../simu5G/images
config network S2C
config *.*.macCellId 1
config *.*.masterId 1
config *.*.nrMacCellId 1
config *.*.nrMasterId 1
config *.u*.DSTT.DSTT.destAddress "\"Server\""
config *.Client1.numApps 1
config *.Client1.app[*].typename UdpSourceApp
config *.Client1.app[*].io.destAddress "\"Server\""
config *.Client1.app[*].io.localPort 1000+ancestorIndex(1)
config *.Client1.app[0].display-name TCU
config *.Client1.app[0].io.destPort 1001
config *.Client1.app[0].source.packetLength 77B
config *.Client1.app[0].source.productionInterval 10ms
config *.Server*.numApps 2
config *.Server.app[*].typename UdpSinkApp
config *.Server.app[0].display-name besteffort
config *.Server.app[1].display-name video
config *.Server.app[*].io.localPort 1000+ancestorIndex(1)
config *.*.hasOutgoingStreams true
config *.*.hasIncomingStreams true
config *.Client*.bridging.streamIdentifier.identifier.mapping "[{stream: \"besteffort\", packetFilter: expr(udp.destPort == 1000)},\n\t\t\t\t\t\t\t\t\t\t\t\t\t\t\t{stream: \"video\", packetFilter: expr(udp.destPort == 1001)}]"
config *.Client*.bridging.streamCoder.encoder.mapping "[{stream: \"besteffort\", pcp: 0},\n\t\t\t\t\t\t\t\t\t\t\t\t\t{stream: \"video\", pcp: 4}]"
config *.Server.bridging.streamIdentifier.identifier.mapping "[{stream: \"besteffort\", packetFilter: expr(udp.destPort == 1000)},\n\t\t\t\t\t\t\t\t\t\t\t\t\t\t\t{stream: \"video\", packetFilter: expr(udp.destPort == 1001)}]"
config *.Server.bridging.streamCoder.encoder.mapping "[{stream: \"besteffort\", pcp: 0},\n\t\t\t\t\t\t\t\t\t\t\t\t\t{stream: \"video\", pcp: 4}]"
config *.tsnSwitch.bridging.streamCoder.decoder.mapping "[{pcp: 0, stream: \"besteffort\"},\n                                                 {pcp: 4, stream: \"video\"}]"
config *.tsnSwitch.bridging.streamCoder.encoder.mapping "[{stream: \"besteffort\", pcp: 0},\n\t\t\t\t\t\t\t\t\t\t\t\t\t{stream: \"video\", pcp: 4}]"
config *.tsnSwitch.hasIngressTrafficFiltering true
config *.tsnSwitch.bridging.streamFilter.ingress.typename SimpleIeee8021qFilter
config *.tsnSwitch.bridging.streamFilter.ingress.numStreams 2
config *.tsnSwitch.bridging.streamFilter.ingress.classifier.mapping "{besteffort: 0,video: 1}"
config *.tsnSwitch.bridging.streamFilter.ingress.*[0].display-name besteffort
config *.tsnSwitch.bridging.streamFilter.ingress.*[1].display-name video
config *.tsnSwitch.bridging.streamFilter.ingress.meter[*].typename EligibilityTimeMeter
config *.tsnSwitch.bridging.streamFilter.ingress.meter[*].committedInformationRate 1Mbps
config *.tsnSwitch.bridging.streamFilter.ingress.meter[*].committedBurstSize 1kB
config *.tsnSwitch.bridging.streamFilter.ingress.filter[*].typename EligibilityTimeFilter
config *.tsnSwitch.hasEgressTrafficShaping true
config *.tsnSwitch.bridging.directionReverser.reverser.excludeEncapsulationProtocols "[\"ieee8021qctag\"]"
config *.tsnSwitch.eth[*].macLayer.queue.numTrafficClasses 2
config *.tsnSwitch.eth[*].macLayer.queue.*[0].display-name besteffort
config *.tsnSwitch.eth[*].macLayer.queue.*[1].display-name video
config *.tsnSwitch.eth[*].macLayer.queue.queue[0].typename EligibilityTimeQueue
config *.tsnSwitch.eth[*].macLayer.queue.queue[1].typename EligibilityTimeQueue
config *.tsnSwitch.eth[*].macLayer.queue.transmissionSelectionAlgorithm[0].typename Ieee8021qAsynchronousShaper
config *.tsnSwitch.eth[*].macLayer.queue.transmissionSelectionAlgorithm[1].typename Ieee8021qAsynchronousShaper

par S2C.Client1.ethg$o[0].channel typename "\"inet.node.ethernet.Eth100M\""
par S2C.Client1.ethg$o[0].channel disabled false
attr mutable ""
par S2C.Client1.ethg$o[0].channel delay 0s
attr mutable ""
attr unit s
par S2C.Client1.ethg$o[0].channel datarate 1e+08bps
attr mutable ""
attr unit bps
par S2C.Client1.ethg$o[0].channel ber 0
attr mutable ""
par S2C.Client1.ethg$o[0].channel per 0
attr mutable ""
par S2C.Client1.ethg$o[0].channel length 0m
attr unit m
par S2C.u1.phys$o.channel typename "\"inet.node.ethernet.Eth100M\""
par S2C.u1.phys$o.channel disabled false
attr mutable ""
par S2C.u1.phys$o.channel delay 0s
attr mutable ""
attr unit s
par S2C.u1.phys$o.channel datarate 1e+08bps
attr mutable ""
attr unit bps
par S2C.u1.phys$o.channel ber 0
attr mutable ""
par S2C.u1.phys$o.channel per 0
attr mutable ""
par S2C.u1.phys$o.channel length 0m
attr unit m
par S2C.Client2.ethg$o[0].channel typename "\"inet.node.ethernet.Eth100M\""
par S2C.Client2.ethg$o[0].channel disabled false
attr mutable ""
par S2C.Client2.ethg$o[0].channel delay 0s
attr mutable ""
attr unit s
par S2C.Client2.ethg$o[0].channel datarate 1e+08bps
attr mutable ""
attr unit bps
par S2C.Client2.ethg$o[0].channel ber 0
attr mutable ""
par S2C.Client2.ethg$o[0].channel per 0
attr mutable ""
par S2C.Client2.ethg$o[0].channel length 0m
attr unit m
par S2C.u2.phys$o.channel typename "\"inet.node.ethernet.Eth100M\""
par S2C.u2.phys$o.channel disabled false
attr mutable ""
par S2C.u2.phys$o.channel delay 0s
attr mutable ""
attr unit s
par S2C.u2.phys$o.channel datarate 1e+08bps
attr mutable ""
attr unit bps
par S2C.u2.phys$o.channel ber 0
attr mutable ""
par S2C.u2.phys$o.channel per 0
attr mutable ""
par S2C.u2.phys$o.channel length 0m
attr unit m
par S2C.upf.filterGate$o.channel typename "\"inet.node.ethernet.Eth100M\""
par S2C.upf.filterGate$o.channel disabled false
attr mutable ""
par S2C.upf.filterGate$o.channel delay 5e-08s
attr mutable ""
attr unit s
par S2C.upf.filterGate$o.channel datarate 1e+08bps
attr mutable ""
attr unit bps
par S2C.upf.filterGate$o.channel ber 0
attr mutable ""
par S2C.upf.filterGate$o.channel per 0
attr mutable ""
par S2C.upf.filterGate$o.channel length 10m
attr unit m
par S2C.tsnSwitch.ethg$o[0].channel typename "\"inet.node.ethernet.Eth100M\""
par S2C.tsnSwitch.ethg$o[0].channel disabled false
attr mutable ""
par S2C.tsnSwitch.ethg$o[0].channel delay 5e-08s
attr mutable ""
attr unit s
par S2C.tsnSwitch.ethg$o[0].channel datarate 1e+08bps
attr mutable ""
attr unit bps
par S2C.tsnSwitch.ethg$o[0].channel ber 0
attr mutable ""
par S2C.tsnSwitch.ethg$o[0].channel per 0
attr mutable ""
par S2C.tsnSwitch.ethg$o[0].channel length 10m
attr unit m
par S2C.tsnSwitch.ethg$o[1].channel typename "\"inet.node.ethernet.Eth100M\""
par S2C.tsnSwitch.ethg$o[1].channel disabled false
attr mutable ""
par S2C.tsnSwitch.ethg$o[1].channel delay 5e-08s
attr mutable ""
attr unit s
par S2C.tsnSwitch.ethg$o[1].channel datarate 1e+08bps
attr mutable ""
attr unit bps
par S2C.tsnSwitch.ethg$o[1].channel ber 0
attr mutable ""
par S2C.tsnSwitch.ethg$o[1].channel per 0
attr mutable ""
par S2C.tsnSwitch.ethg$o[1].channel length 10m
attr unit m
par S2C.Server.ethg$o[0].channel typename "\"inet.node.ethernet.Eth100M\""
par S2C.Server.ethg$o[0].channel disabled false
attr mutable ""
par S2C.Server.ethg$o[0].channel delay 5e-08s
attr mutable ""
attr unit s
par S2C.Server.ethg$o[0].channel datarate 1e+08bps
attr mutable ""
attr unit bps
par S2C.Server.ethg$o[0].channel ber 0
attr mutable ""
par S2C.Server.ethg$o[0].channel per 0
attr mutable ""
par S2C.Server.ethg$o[0].channel length 10m
attr unit m
par S2C.upf.pppg$o[0].channel typename "\"inet.node.ethernet.Eth100M\""
par S2C.upf.pppg$o[0].channel disabled false
attr mutable ""
par S2C.upf.pppg$o[0].channel delay 5e-08s
attr mutable ""
attr unit s
par S2C.upf.pppg$o[0].channel datarate 1e+08bps
attr mutable ""
attr unit bps
par S2C.upf.pppg$o[0].channel ber 0
attr mutable ""
par S2C.upf.pppg$o[0].channel per 0
attr mutable ""
par S2C.upf.pppg$o[0].channel length 10m
attr unit m
par S2C.gnb.ppp$o.channel typename "\"inet.node.ethernet.Eth100M\""
par S2C.gnb.ppp$o.channel disabled false
attr mutable ""
par S2C.gnb.ppp$o.channel delay 5e-08s
attr mutable ""
attr unit s
par S2C.gnb.ppp$o.channel datarate 1e+08bps
attr mutable ""
attr unit bps
par S2C.gnb.ppp$o.channel ber 0
attr mutable ""
par S2C.gnb.ppp$o.channel per 0
attr mutable ""
par S2C.gnb.ppp$o.channel length 10m
attr unit m
par S2C.visualizer.sceneVisualizer typename "\"inet.visualizer.canvas.scene.SceneCanvasVisualizer\""
par S2C.visualizer.sceneVisualizer visualizationTargetModule "\"^.^\""
par S2C.visualizer.sceneVisualizer visualizationSubjectModule "\"^.^\""
par S2C.visualizer.sceneVisualizer tags "\"\""
par S2C.visualizer.sceneVisualizer physicalEnvironmentModule "\"physicalEnvironment\""
par S2C.visualizer.sceneVisualizer networkNodeVisualizerModule "\"^.networkNodeVisualizer\""
par S2C.visualizer.sceneVisualizer axisLength "nan m"
attr mutable ""
attr unit m
par S2C.visualizer.sceneVisualizer animationSpeed 0
par S2C.visualizer.sceneVisualizer sceneMinX "nan m"
attr unit m
par S2C.visualizer.sceneVisualizer sceneMinY "nan m"
attr unit m
par S2C.visualizer.sceneVisualizer sceneMinZ "nan m"
attr unit m
par S2C.visualizer.sceneVisualizer sceneMaxX "nan m"
attr unit m
par S2C.visualizer.sceneVisualizer sceneMaxY "nan m"
attr unit m
par S2C.visualizer.sceneVisualizer sceneMaxZ "nan m"
attr unit m
par S2C.visualizer.sceneVisualizer zIndex 0
par S2C.visualizer.sceneVisualizer viewAngle "\"x right y down z out\""
attr mutable ""
par S2C.visualizer.sceneVisualizer viewScale "\"1 1\""
attr mutable ""
par S2C.visualizer.sceneVisualizer viewTranslation "\"0 0\""
attr mutable ""
par S2C.visualizer.sceneVisualizer descriptionFigure "\"\""
par S2C.visualizer.physicalEnvironmentVisualizer typename "\"inet.visualizer.canvas.environment.PhysicalEnvironmentCanvasVisualizer\""
par S2C.visualizer.physicalEnvironmentVisualizer visualizationTargetModule "\"^.^\""
par S2C.visualizer.physicalEnvironmentVisualizer visualizationSubjectModule "\"^.^\""
par S2C.visualizer.physicalEnvironmentVisualizer tags "\"\""
par S2C.visualizer.physicalEnvironmentVisualizer physicalEnvironmentModule "\"physicalEnvironment\""
par S2C.visualizer.physicalEnvironmentVisualizer displayObjects true
par S2C.visualizer.physicalEnvironmentVisualizer zIndex 0
par S2C.visualizer.networkNodeVisualizer typename "\"inet.visualizer.canvas.scene.NetworkNodeCanvasVisualizer\""
par S2C.visualizer.networkNodeVisualizer visualizationTargetModule "\"^.^\""
par S2C.visualizer.networkNodeVisualizer visualizationSubjectModule "\"^.^\""
par S2C.visualizer.networkNodeVisualizer tags "\"\""
par S2C.visualizer.networkNodeVisualizer nodeFilter "\"*\""
attr mutable ""
par S2C.visualizer.networkNodeVisualizer annotationSpacing 4
par S2C.visualizer.networkNodeVisualizer placementPenalty 10
par S2C.visualizer.networkNodeVisualizer zIndex 0
par S2C.visualizer.networkConnectionVisualizer typename "\"inet.visualizer.canvas.scene.NetworkConnectionCanvasVisualizer\""
par S2C.visualizer.networkConnectionVisualizer visualizationTargetModule "\"^.^\""
par S2C.visualizer.networkConnectionVisualizer visualizationSubjectModule "\"^.^\""
par S2C.visualizer.networkConnectionVisualizer tags "\"\""
par S2C.visualizer.networkConnectionVisualizer displayNetworkConnections true
par S2C.visualizer.networkConnectionVisualizer nodeFilter "\"\""
attr mutable ""
par S2C.visualizer.networkConnectionVisualizer lineColor "\"black\""
par S2C.visualizer.networkConnectionVisualizer lineStyle "\"solid\""
par S2C.visualizer.networkConnectionVisualizer lineWidth 1
par S2C.visualizer.networkConnectionVisualizer zIndex 0
par S2C.visualizer.mobilityVisualizer typename "\"inet.visualizer.canvas.mobility.MobilityCanvasVisualizer\""
par S2C.visualizer.mobilityVisualizer visualizationTargetModule "\"^.^\""
par S2C.visualizer.mobilityVisualizer visualizationSubjectModule "\"^.^\""
par S2C.visualizer.mobilityVisualizer tags "\"\""
par S2C.visualizer.mobilityVisualizer networkNodeVisualizerModule "\"^.networkNodeVisualizer\""
par S2C.visualizer.mobilityVisualizer displayMobility true
par S2C.visualizer.mobilityVisualizer animationSpeed 0
par S2C.visualizer.mobilityVisualizer moduleFilter "\"**.mobility\""
attr mutable ""
par S2C.visualizer.mobilityVisualizer displayPositions false
par S2C.visualizer.mobilityVisualizer positionCircleRadius 4
par S2C.visualizer.mobilityVisualizer positionCircleLineWidth 1
par S2C.visualizer.mobilityVisualizer positionCircleLineColor "\"dark\""
attr enum light,dark
par S2C.visualizer.mobilityVisualizer positionCircleFillColor "\"dark\""
attr enum light,dark
par S2C.visualizer.mobilityVisualizer displayOrientations false
par S2C.visualizer.mobilityVisualizer orientationPieRadius 32
par S2C.visualizer.mobilityVisualizer orientationPieSize 0.2
par S2C.visualizer.mobilityVisualizer orientationPieOpacity 0.25
par S2C.visualizer.mobilityVisualizer orientationLineColor "\"black\""
par S2C.visualizer.mobilityVisualizer orientationLineStyle "\"solid\""
par S2C.visualizer.mobilityVisualizer orientationLineWidth 1
par S2C.visualizer.mobilityVisualizer orientationFillColor "\"blue\""
par S2C.visualizer.mobilityVisualizer displayVelocities false
par S2C.visualizer.mobilityVisualizer velocityArrowScale 1
par S2C.visualizer.mobilityVisualizer velocityLineColor "\"black\""
par S2C.visualizer.mobilityVisualizer velocityLineStyle "\"solid\""
par S2C.visualizer.mobilityVisualizer velocityLineWidth 1
par S2C.visualizer.mobilityVisualizer displayMovementTrails false
par S2C.visualizer.mobilityVisualizer movementTrailLineColor "\"dark\""
attr enum light,dark
par S2C.visualizer.mobilityVisualizer movementTrailLineStyle "\"solid\""
par S2C.visualizer.mobilityVisualizer movementTrailLineWidth 1
par S2C.visualizer.mobilityVisualizer trailLength 100
par S2C.visualizer.mobilityVisualizer zIndex 0
par S2C.visualizer.statisticVisualizer typename "\"inet.visualizer.canvas.common.StatisticCanvasVisualizer\""
par S2C.visualizer.statisticVisualizer visualizationTargetModule "\"^.^\""
par S2C.visualizer.statisticVisualizer visualizationSubjectModule "\"^.^\""
par S2C.visualizer.statisticVisualizer tags "\"\""
par S2C.visualizer.statisticVisualizer networkNodeVisualizerModule "\"^.networkNodeVisualizer\""
par S2C.visualizer.statisticVisualizer displayStatistics true
par S2C.visualizer.statisticVisualizer signalName "\"\""
par S2C.visualizer.statisticVisualizer statisticName "\"\""
par S2C.visualizer.statisticVisualizer statisticUnit "\"\""
par S2C.visualizer.statisticVisualizer statisticExpression "\"\""
par S2C.visualizer.statisticVisualizer sourceFilter "\"**\""
attr mutable ""
par S2C.visualizer.statisticVisualizer format "\"%n: %v %u\""
attr mutable ""
par S2C.visualizer.statisticVisualizer unit "\"\""
par S2C.visualizer.statisticVisualizer font "\"<default>\""
par S2C.visualizer.statisticVisualizer textColor "\"black\""
par S2C.visualizer.statisticVisualizer backgroundColor "\"white\""
par S2C.visualizer.statisticVisualizer opacity 1
par S2C.visualizer.statisticVisualizer placementHint "\"top\""
par S2C.visualizer.statisticVisualizer placementPriority 0
par S2C.visualizer.statisticVisualizer zIndex 10
par S2C.visualizer.statisticVisualizer propertyName "\"\""
par S2C.visualizer.statisticVisualizer propertyIndex "\"\""
par S2C.visualizer.infoVisualizer typename "\"inet.visualizer.canvas.common.InfoCanvasVisualizer\""
par S2C.visualizer.infoVisualizer visualizationTargetModule "\"^.^\""
par S2C.visualizer.infoVisualizer visualizationSubjectModule "\"^.^\""
par S2C.visualizer.infoVisualizer tags "\"\""
par S2C.visualizer.infoVisualizer networkNodeVisualizerModule "\"^.networkNodeVisualizer\""
par S2C.visualizer.infoVisualizer displayInfos true
par S2C.visualizer.infoVisualizer modules "\"\""
attr mutable ""
par S2C.visualizer.infoVisualizer format "\"%t\""
attr mutable ""
par S2C.visualizer.infoVisualizer font "\"<default>\""
par S2C.visualizer.infoVisualizer textColor "\"black\""
par S2C.visualizer.infoVisualizer backgroundColor "\"white\""
par S2C.visualizer.infoVisualizer opacity 1
par S2C.visualizer.infoVisualizer placementHint "\"top\""
par S2C.visualizer.infoVisualizer placementPriority 0
par S2C.visualizer.infoVisualizer zIndex 10
par S2C.visualizer.energyStorageVisualizer typename "\"inet.visualizer.canvas.power.EnergyStorageCanvasVisualizer\""
par S2C.visualizer.energyStorageVisualizer visualizationTargetModule "\"^.^\""
par S2C.visualizer.energyStorageVisualizer visualizationSubjectModule "\"^.^\""
par S2C.visualizer.energyStorageVisualizer tags "\"\""
par S2C.visualizer.energyStorageVisualizer networkNodeVisualizerModule "\"^.networkNodeVisualizer\""
par S2C.visualizer.energyStorageVisualizer displayEnergyStorages false
par S2C.visualizer.energyStorageVisualizer energyStorageFilter "\"**\""
par S2C.visualizer.energyStorageVisualizer color "\"green\""
par S2C.visualizer.energyStorageVisualizer width 8
par S2C.visualizer.energyStorageVisualizer height 24
par S2C.visualizer.energyStorageVisualizer spacing 2
par S2C.visualizer.energyStorageVisualizer placementHint "\"right\""
par S2C.visualizer.energyStorageVisualizer placementPriority 0
par S2C.visualizer.energyStorageVisualizer zIndex 10
par S2C.visualizer.mediumVisualizer typename "\"inet.visualizer.canvas.physicallayer.MediumCanvasVisualizer\""
par S2C.visualizer.mediumVisualizer visualizationTargetModule "\"^.^\""
par S2C.visualizer.mediumVisualizer visualizationSubjectModule "\"^.^\""
par S2C.visualizer.mediumVisualizer tags "\"\""
par S2C.visualizer.mediumVisualizer mediumModule "\"radioMedium\""
par S2C.visualizer.mediumVisualizer networkNodeVisualizerModule "\"^.networkNodeVisualizer\""
par S2C.visualizer.mediumVisualizer nodeFilter "\"*\""
attr mutable ""
par S2C.visualizer.mediumVisualizer interfaceFilter "\"*\""
attr mutable ""
par S2C.visualizer.mediumVisualizer packetFilter "(omnetpp::cValueHolder)holder: \"*\""
attr mutable ""
par S2C.visualizer.mediumVisualizer displaySignals false
par S2C.visualizer.mediumVisualizer signalColor "\"dark\""
attr enum light,dark
par S2C.visualizer.mediumVisualizer signalPropagationAnimationSpeed "nan "
attr mutable ""
par S2C.visualizer.mediumVisualizer signalPropagationAnimationTime 1s
attr unit s
par S2C.visualizer.mediumVisualizer signalPropagationAdditionalTime 0s
attr unit s
par S2C.visualizer.mediumVisualizer signalTransmissionAnimationSpeed "nan "
attr mutable ""
par S2C.visualizer.mediumVisualizer signalTransmissionAnimationTime 1s
attr unit s
par S2C.visualizer.mediumVisualizer signalAnimationSpeedChangeTimeMode "\"realTime\""
attr enum realTime,animationTime,simulationTime
par S2C.visualizer.mediumVisualizer signalAnimationSpeedChangeTime 1s
attr unit s
par S2C.visualizer.mediumVisualizer displaySignalDepartures false
par S2C.visualizer.mediumVisualizer signalDepartureImage "\"misc/signal_departure.png\""
par S2C.visualizer.mediumVisualizer signalDeparturePlacementHint "\"topCenter\""
par S2C.visualizer.mediumVisualizer signalDeparturePlacementPriority 1
par S2C.visualizer.mediumVisualizer displaySignalArrivals false
par S2C.visualizer.mediumVisualizer signalArrivalImage "\"misc/signal_arrival.png\""
par S2C.visualizer.mediumVisualizer signalArrivalPlacementHint "\"topCenter\""
par S2C.visualizer.mediumVisualizer signalArrivalPlacementPriority -1
par S2C.visualizer.mediumVisualizer displayCommunicationRanges false
par S2C.visualizer.mediumVisualizer communicationRangeLineColor "\"blue\""
par S2C.visualizer.mediumVisualizer communicationRangeLineStyle "\"solid\""
par S2C.visualizer.mediumVisualizer communicationRangeLineWidth 1
par S2C.visualizer.mediumVisualizer displayInterferenceRanges false
par S2C.visualizer.mediumVisualizer interferenceRangeLineColor "\"gray\""
par S2C.visualizer.mediumVisualizer interferenceRangeLineStyle "\"solid\""
par S2C.visualizer.mediumVisualizer interferenceRangeLineWidth 1
par S2C.visualizer.mediumVisualizer autoPowerAxis true
par S2C.visualizer.mediumVisualizer signalMinPower "inf dBmW"
attr unit dBmW
par S2C.visualizer.mediumVisualizer signalMaxPower 0dBmW
attr unit dBmW
par S2C.visualizer.mediumVisualizer signalMinPowerDensity "inf dBmWpMHz"
attr unit dBmWpMHz
par S2C.visualizer.mediumVisualizer signalMaxPowerDensity "-inf dBmWpMHz"
attr unit dBmWpMHz
par S2C.visualizer.mediumVisualizer autoTimeAxis true
par S2C.visualizer.mediumVisualizer signalMinTime 0s
attr unit s
par S2C.visualizer.mediumVisualizer signalMaxTime 0s
attr unit s
par S2C.visualizer.mediumVisualizer autoFrequencyAxis true
par S2C.visualizer.mediumVisualizer signalMinFrequency "inf Hz"
attr unit Hz
par S2C.visualizer.mediumVisualizer signalMaxFrequency "-inf Hz"
attr unit Hz
par S2C.visualizer.mediumVisualizer displayMainPowerDensityMap false
par S2C.visualizer.mediumVisualizer mainPowerDensityMapPixmapDensity 1
par S2C.visualizer.mediumVisualizer mainPowerDensityMapMinX 0
par S2C.visualizer.mediumVisualizer mainPowerDensityMapMaxX "nan "
par S2C.visualizer.mediumVisualizer mainPowerDensityMapMinY 0
par S2C.visualizer.mediumVisualizer mainPowerDensityMapMaxY "nan "
par S2C.visualizer.mediumVisualizer mainPowerDensityMapZ 0
par S2C.visualizer.mediumVisualizer mainPowerDensityMapFigureXTickCount 3
par S2C.visualizer.mediumVisualizer mainPowerDensityMapFigureYTickCount 3
par S2C.visualizer.mediumVisualizer displayPowerDensityMaps false
par S2C.visualizer.mediumVisualizer powerDensityMapMode "\"auto\""
attr enum total,signal,auto
par S2C.visualizer.mediumVisualizer powerDensityMapPixelMode "\"mean\""
attr enum sample,partition,mean
par S2C.visualizer.mediumVisualizer powerDensityMapApproximationSize 10
par S2C.visualizer.mediumVisualizer powerDensityMapCenterFrequency "nan Hz"
attr mutable ""
attr unit Hz
par S2C.visualizer.mediumVisualizer powerDensityMapBandwidth 0Hz
attr mutable ""
attr unit Hz
par S2C.visualizer.mediumVisualizer powerDensityMapFigureWidth 200
par S2C.visualizer.mediumVisualizer powerDensityMapFigureHeight 120
par S2C.visualizer.mediumVisualizer powerDensityMapPixmapWidth 200
par S2C.visualizer.mediumVisualizer powerDensityMapPixmapHeight 120
par S2C.visualizer.mediumVisualizer powerDensityMapZ 0
par S2C.visualizer.mediumVisualizer powerDensityMapFigureXTickCount 3
par S2C.visualizer.mediumVisualizer powerDensityMapFigureYTickCount 3
par S2C.visualizer.mediumVisualizer displaySpectrums false
par S2C.visualizer.mediumVisualizer spectrumMode "\"auto\""
attr enum total,signal,auto
par S2C.visualizer.mediumVisualizer spectrumFigureWidth 200
par S2C.visualizer.mediumVisualizer spectrumFigureHeight 120
par S2C.visualizer.mediumVisualizer spectrumFigureXTickCount 3
par S2C.visualizer.mediumVisualizer spectrumFigureYTickCount 5
par S2C.visualizer.mediumVisualizer spectrumFigureInterpolationSize 5
par S2C.visualizer.mediumVisualizer spectrumPlacementHint "\"bottomCenter\""
par S2C.visualizer.mediumVisualizer spectrumPlacementPriority -1
par S2C.visualizer.mediumVisualizer displaySpectrograms false
par S2C.visualizer.mediumVisualizer spectrogramMode "\"auto\""
attr enum total,signal,auto
par S2C.visualizer.mediumVisualizer spectrogramPixelMode "\"mean\""
attr enum sample,partition,mean
par S2C.visualizer.mediumVisualizer spectrogramFigureWidth 200
par S2C.visualizer.mediumVisualizer spectrogramFigureHeight 120
par S2C.visualizer.mediumVisualizer spectrogramPixmapWidth 200
par S2C.visualizer.mediumVisualizer spectrogramPixmapHeight 120
par S2C.visualizer.mediumVisualizer spectrogramFigureXTickCount 3
par S2C.visualizer.mediumVisualizer spectrogramFigureYTickCount 5
par S2C.visualizer.mediumVisualizer spectrogramPlacementHint "\"bottomCenter\""
par S2C.visualizer.mediumVisualizer spectrogramPlacementPriority -1
par S2C.visualizer.mediumVisualizer zIndex 0
par S2C.visualizer.mediumVisualizer signalShape "\"ring\""
attr enum ring,sphere
par S2C.visualizer.mediumVisualizer signalOpacity 0.5
par S2C.visualizer.mediumVisualizer signalRingCount 20
par S2C.visualizer.mediumVisualizer signalRingSize 50m
attr unit m
par S2C.visualizer.mediumVisualizer signalFadingDistance 50m
attr unit m
par S2C.visualizer.mediumVisualizer signalFadingFactor 1.2
par S2C.visualizer.mediumVisualizer signalWaveCount 20
par S2C.visualizer.mediumVisualizer signalWaveLength 50m
attr unit m
par S2C.visualizer.mediumVisualizer signalWaveWidth 10m
attr unit m
par S2C.visualizer.mediumVisualizer signalWaveFadingAnimationSpeedFactor 1
par S2C.visualizer.mediumVisualizer displayCommunicationHeat false
par S2C.visualizer.obstacleLossVisualizer typename "\"inet.visualizer.canvas.physicallayer.TracingObstacleLossCanvasVisualizer\""
par S2C.visualizer.obstacleLossVisualizer visualizationTargetModule "\"^.^\""
par S2C.visualizer.obstacleLossVisualizer visualizationSubjectModule "\"^.^\""
par S2C.visualizer.obstacleLossVisualizer tags "\"\""
par S2C.visualizer.obstacleLossVisualizer displayIntersections false
par S2C.visualizer.obstacleLossVisualizer intersectionLineColor "\"red\""
par S2C.visualizer.obstacleLossVisualizer intersectionLineStyle "\"solid\""
par S2C.visualizer.obstacleLossVisualizer intersectionLineWidth 1
par S2C.visualizer.obstacleLossVisualizer displayFaceNormalVectors false
par S2C.visualizer.obstacleLossVisualizer faceNormalLineColor "\"grey\""
par S2C.visualizer.obstacleLossVisualizer faceNormalLineStyle "\"solid\""
par S2C.visualizer.obstacleLossVisualizer faceNormalLineWidth 1
par S2C.visualizer.obstacleLossVisualizer fadeOutMode "\"realTime\""
attr enum realTime,animationTime,simulationTime
par S2C.visualizer.obstacleLossVisualizer fadeOutTime 1s
attr unit s
par S2C.visualizer.obstacleLossVisualizer fadeOutAnimationSpeed 0
par S2C.visualizer.obstacleLossVisualizer zIndex 0
par S2C.visualizer.packetDropVisualizer typename "\"inet.visualizer.canvas.common.PacketDropCanvasVisualizer\""
par S2C.visualizer.packetDropVisualizer visualizationTargetModule "\"^.^\""
par S2C.visualizer.packetDropVisualizer visualizationSubjectModule "\"^.^\""
par S2C.visualizer.packetDropVisualizer tags "\"\""
par S2C.visualizer.packetDropVisualizer displayPacketDrops false
par S2C.visualizer.packetDropVisualizer nodeFilter "\"*\""
attr mutable ""
par S2C.visualizer.packetDropVisualizer interfaceFilter "\"*\""
attr mutable ""
par S2C.visualizer.packetDropVisualizer packetFilter "(omnetpp::cValueHolder)holder: \"*\""
attr mutable ""
par S2C.visualizer.packetDropVisualizer detailsFilter "\"*\""
attr mutable ""
par S2C.visualizer.packetDropVisualizer icon "\"msg/packet_s\""
par S2C.visualizer.packetDropVisualizer iconTintAmount 1
par S2C.visualizer.packetDropVisualizer iconTintColor "\"dark\""
par S2C.visualizer.packetDropVisualizer labelFormat "\"%n\""
attr mutable ""
par S2C.visualizer.packetDropVisualizer labelFont "\"<default>\""
par S2C.visualizer.packetDropVisualizer labelColor "\"black\""
par S2C.visualizer.packetDropVisualizer fadeOutMode "\"realTime\""
attr enum realTime,animationTime,simulationTime
par S2C.visualizer.packetDropVisualizer fadeOutTime 1s
attr unit s
par S2C.visualizer.packetDropVisualizer fadeOutAnimationSpeed 0
par S2C.visualizer.packetDropVisualizer zIndex 10
par S2C.visualizer.packetDropVisualizer dx 32
par S2C.visualizer.packetDropVisualizer dy 64
par S2C.visualizer.packetFlowVisualizer typename "\"inet.visualizer.canvas.flow.PacketFlowCanvasVisualizer\""
par S2C.visualizer.packetFlowVisualizer visualizationTargetModule "\"^.^\""
par S2C.visualizer.packetFlowVisualizer visualizationSubjectModule "\"^.^\""
par S2C.visualizer.packetFlowVisualizer tags "\"\""
par S2C.visualizer.packetFlowVisualizer displayRoutes false
par S2C.visualizer.packetFlowVisualizer startPathSignal "\"packetFlowStarted\""
par S2C.visualizer.packetFlowVisualizer extendPathSignal "\"packetReceivedFromLower\""
par S2C.visualizer.packetFlowVisualizer endPathSignal "\"packetFlowEnded\""
par S2C.visualizer.packetFlowVisualizer nodeFilter "\"*\""
attr mutable ""
par S2C.visualizer.packetFlowVisualizer packetFilter "(omnetpp::cValueHolder)holder: \"*\""
attr mutable ""
par S2C.visualizer.packetFlowVisualizer lineColor "\"dark\""
attr enum light,dark
par S2C.visualizer.packetFlowVisualizer lineStyle "\"dashed\""
par S2C.visualizer.packetFlowVisualizer lineWidth 3
par S2C.visualizer.packetFlowVisualizer lineSmooth false
par S2C.visualizer.packetFlowVisualizer lineShift 16
par S2C.visualizer.packetFlowVisualizer lineShiftMode "\"normal\""
par S2C.visualizer.packetFlowVisualizer lineContactSpacing 3
par S2C.visualizer.packetFlowVisualizer lineContactMode "\"rectangular\""
attr enum circular,rectangular
par S2C.visualizer.packetFlowVisualizer labelFormat "\"%L %p pk (%l)\""
par S2C.visualizer.packetFlowVisualizer labelFont "\"<default>, 8px\""
par S2C.visualizer.packetFlowVisualizer labelColor "\"\""
par S2C.visualizer.packetFlowVisualizer fadeOutMode "\"realTime\""
attr enum realTime,animationTime,simulationTime
par S2C.visualizer.packetFlowVisualizer fadeOutTime 0s
attr unit s
par S2C.visualizer.packetFlowVisualizer fadeOutAnimationSpeed 0
par S2C.visualizer.packetFlowVisualizer zIndex 4
par S2C.visualizer.queueVisualizer typename "\"inet.visualizer.canvas.common.QueueCanvasVisualizer\""
par S2C.visualizer.queueVisualizer visualizationTargetModule "\"^.^\""
par S2C.visualizer.queueVisualizer visualizationSubjectModule "\"^.^\""
par S2C.visualizer.queueVisualizer tags "\"\""
par S2C.visualizer.queueVisualizer networkNodeVisualizerModule "\"^.networkNodeVisualizer\""
par S2C.visualizer.queueVisualizer displayQueues false
par S2C.visualizer.queueVisualizer queueFilter "\"**\""
par S2C.visualizer.queueVisualizer color "\"blue\""
par S2C.visualizer.queueVisualizer width 8
par S2C.visualizer.queueVisualizer height 24
par S2C.visualizer.queueVisualizer spacing 2
par S2C.visualizer.queueVisualizer placementHint "\"right\""
par S2C.visualizer.queueVisualizer placementPriority 0
par S2C.visualizer.queueVisualizer zIndex 10
par S2C.visualizer.gateScheduleVisualizer typename "\"inet.visualizer.canvas.common.GateScheduleCanvasVisualizer\""
par S2C.visualizer.gateScheduleVisualizer visualizationTargetModule "\"^.^\""
par S2C.visualizer.gateScheduleVisualizer visualizationSubjectModule "\"^.^\""
par S2C.visualizer.gateScheduleVisualizer tags "\"\""
par S2C.visualizer.gateScheduleVisualizer networkNodeVisualizerModule "\"^.networkNodeVisualizer\""
par S2C.visualizer.gateScheduleVisualizer displayGateSchedules false
par S2C.visualizer.gateScheduleVisualizer labelFormat "\"%i %D\""
par S2C.visualizer.gateScheduleVisualizer gateFilter "\"**\""
par S2C.visualizer.gateScheduleVisualizer width 100
par S2C.visualizer.gateScheduleVisualizer height 8
par S2C.visualizer.gateScheduleVisualizer spacing 2
par S2C.visualizer.gateScheduleVisualizer placementHint "\"right\""
par S2C.visualizer.gateScheduleVisualizer placementPriority 0
par S2C.visualizer.gateScheduleVisualizer displayDuration 0s
attr mutable ""
attr unit s
par S2C.visualizer.gateScheduleVisualizer currentTimePosition 50
par S2C.visualizer.gateScheduleVisualizer zIndex 10
par S2C.visualizer.radioVisualizer typename "\"inet.visualizer.canvas.physicallayer.RadioCanvasVisualizer\""
par S2C.visualizer.radioVisualizer visualizationTargetModule "\"^.^\""
par S2C.visualizer.radioVisualizer visualizationSubjectModule "\"^.^\""
par S2C.visualizer.radioVisualizer tags "\"\""
par S2C.visualizer.radioVisualizer networkNodeVisualizerModule "\"^.networkNodeVisualizer\""
par S2C.visualizer.radioVisualizer displayRadios false
par S2C.visualizer.radioVisualizer displayRadioMode true
par S2C.visualizer.radioVisualizer displayReceptionState true
par S2C.visualizer.radioVisualizer displayTransmissionState true
par S2C.visualizer.radioVisualizer displayAntennaLobes false
par S2C.visualizer.radioVisualizer radioFilter "\"**\""
attr mutable ""
par S2C.visualizer.radioVisualizer radioModeImages "\"block/process_vs block/timer_vs block/wrx_vs block/wtx_vs block/wrxtx_vs block/cogwheel_vs\""
par S2C.visualizer.radioVisualizer receptionStateImages "\"- - misc/receiving misc/receiving\""
par S2C.visualizer.radioVisualizer transmissionStateImages "\"- - misc/transmitting\""
par S2C.visualizer.radioVisualizer width 16
par S2C.visualizer.radioVisualizer height 16
par S2C.visualizer.radioVisualizer placementHint "\"bottomRight\""
par S2C.visualizer.radioVisualizer placementPriority 0
par S2C.visualizer.radioVisualizer antennaLobeNormalize false
par S2C.visualizer.radioVisualizer antennaLobeRelativeLabels false
par S2C.visualizer.radioVisualizer antennaLobePlaneGlobal true
par S2C.visualizer.radioVisualizer antennaLobePlane "\"view\""
attr enum view,xy,xz,yz
par S2C.visualizer.radioVisualizer antennaLobeMode "\"logarithmic\""
attr enum logarithmic,linear
par S2C.visualizer.radioVisualizer antennaLobeLogarithmicBase 10
par S2C.visualizer.radioVisualizer antennaLobeLogarithmicScale 100
par S2C.visualizer.radioVisualizer antennaLobeRadius 100
par S2C.visualizer.radioVisualizer antennaLobeStep 10deg
attr unit deg
par S2C.visualizer.radioVisualizer antennaLobeOpacity 0.25
par S2C.visualizer.radioVisualizer antennaLobeLineSmooth true
par S2C.visualizer.radioVisualizer antennaLobeLineColor "\"black\""
par S2C.visualizer.radioVisualizer antennaLobeLineStyle "\"solid\""
par S2C.visualizer.radioVisualizer antennaLobeLineWidth 1
par S2C.visualizer.radioVisualizer antennaLobeFillColor "\"white\""
par S2C.visualizer.radioVisualizer zIndex 10
par S2C.visualizer.physicalLinkVisualizer typename "\"inet.visualizer.canvas.physicallayer.PhysicalLinkCanvasVisualizer\""
par S2C.visualizer.physicalLinkVisualizer visualizationTargetModule "\"^.^\""
par S2C.visualizer.physicalLinkVisualizer visualizationSubjectModule "\"^.^\""
par S2C.visualizer.physicalLinkVisualizer tags "\"\""
par S2C.visualizer.physicalLinkVisualizer displayLinks false
par S2C.visualizer.physicalLinkVisualizer activityLevel "\"service\""
attr enum service,peer,protocol
par S2C.visualizer.physicalLinkVisualizer nodeFilter "\"*\""
attr mutable ""
par S2C.visualizer.physicalLinkVisualizer interfaceFilter "\"*\""
attr mutable ""
par S2C.visualizer.physicalLinkVisualizer packetFilter "(omnetpp::cValueHolder)holder: \"*\""
attr mutable ""
par S2C.visualizer.physicalLinkVisualizer lineColor "\"olive\""
par S2C.visualizer.physicalLinkVisualizer lineStyle "\"dotted\""
par S2C.visualizer.physicalLinkVisualizer lineWidth 3
par S2C.visualizer.physicalLinkVisualizer lineShift 16
par S2C.visualizer.physicalLinkVisualizer lineShiftMode "\"normal\""
par S2C.visualizer.physicalLinkVisualizer lineContactSpacing 3
par S2C.visualizer.physicalLinkVisualizer lineContactMode "\"rectangular\""
attr enum circular,rectangular
par S2C.visualizer.physicalLinkVisualizer labelFormat "\"%n\""
par S2C.visualizer.physicalLinkVisualizer labelFont "\"<default>, 8px\""
par S2C.visualizer.physicalLinkVisualizer labelColor "\"olive\""
par S2C.visualizer.physicalLinkVisualizer fadeOutMode "\"realTime\""
attr enum realTime,animationTime,simulationTime
par S2C.visualizer.physicalLinkVisualizer fadeOutTime 1s
attr unit s
par S2C.visualizer.physicalLinkVisualizer fadeOutAnimationSpeed 0
par S2C.visualizer.physicalLinkVisualizer holdAnimationTime 0s
attr unit s
par S2C.visualizer.physicalLinkVisualizer zIndex 1
par S2C.visualizer.interfaceTableVisualizer typename "\"inet.visualizer.canvas.linklayer.InterfaceTableCanvasVisualizer\""
par S2C.visualizer.interfaceTableVisualizer visualizationTargetModule "\"^.^\""
par S2C.visualizer.interfaceTableVisualizer visualizationSubjectModule "\"^.^\""
par S2C.visualizer.interfaceTableVisualizer tags "\"\""
par S2C.visualizer.interfaceTableVisualizer networkNodeVisualizerModule "\"^.networkNodeVisualizer\""
par S2C.visualizer.interfaceTableVisualizer displayInterfaceTables false
par S2C.visualizer.interfaceTableVisualizer displayWiredInterfacesAtConnections true
par S2C.visualizer.interfaceTableVisualizer displayBackground false
par S2C.visualizer.interfaceTableVisualizer nodeFilter "\"*\""
attr mutable ""
par S2C.visualizer.interfaceTableVisualizer interfaceFilter "\"not(lo*)\""
attr mutable ""
par S2C.visualizer.interfaceTableVisualizer format "\"%N %\\\\%a%/%l\""
attr mutable ""
par S2C.visualizer.interfaceTableVisualizer placementHint "\"top\""
par S2C.visualizer.interfaceTableVisualizer placementPriority 0
par S2C.visualizer.interfaceTableVisualizer font "\"<default>\""
par S2C.visualizer.interfaceTableVisualizer textColor "\"#005030\""
par S2C.visualizer.interfaceTableVisualizer backgroundColor "\"white\""
par S2C.visualizer.interfaceTableVisualizer opacity 1
par S2C.visualizer.interfaceTableVisualizer zIndex 10
par S2C.visualizer.dataLinkVisualizer typename "\"inet.visualizer.canvas.linklayer.DataLinkCanvasVisualizer\""
par S2C.visualizer.dataLinkVisualizer visualizationTargetModule "\"^.^\""
par S2C.visualizer.dataLinkVisualizer visualizationSubjectModule "\"^.^\""
par S2C.visualizer.dataLinkVisualizer tags "\"\""
par S2C.visualizer.dataLinkVisualizer displayLinks false
par S2C.visualizer.dataLinkVisualizer activityLevel "\"service\""
attr enum service,peer,protocol
par S2C.visualizer.dataLinkVisualizer nodeFilter "\"*\""
attr mutable ""
par S2C.visualizer.dataLinkVisualizer interfaceFilter "\"*\""
attr mutable ""
par S2C.visualizer.dataLinkVisualizer packetFilter "(omnetpp::cValueHolder)holder: \"*\""
attr mutable ""
par S2C.visualizer.dataLinkVisualizer lineColor "\"darkcyan\""
par S2C.visualizer.dataLinkVisualizer lineStyle "\"solid\""
par S2C.visualizer.dataLinkVisualizer lineWidth 3
par S2C.visualizer.dataLinkVisualizer lineShift 16
par S2C.visualizer.dataLinkVisualizer lineShiftMode "\"normal\""
par S2C.visualizer.dataLinkVisualizer lineContactSpacing 3
par S2C.visualizer.dataLinkVisualizer lineContactMode "\"rectangular\""
attr enum circular,rectangular
par S2C.visualizer.dataLinkVisualizer labelFormat "\"%n\""
par S2C.visualizer.dataLinkVisualizer labelFont "\"<default>, 8px\""
par S2C.visualizer.dataLinkVisualizer labelColor "\"darkcyan\""
par S2C.visualizer.dataLinkVisualizer fadeOutMode "\"realTime\""
attr enum realTime,animationTime,simulationTime
par S2C.visualizer.dataLinkVisualizer fadeOutTime 1s
attr unit s
par S2C.visualizer.dataLinkVisualizer fadeOutAnimationSpeed 0
par S2C.visualizer.dataLinkVisualizer holdAnimationTime 0s
attr unit s
par S2C.visualizer.dataLinkVisualizer zIndex 2
par S2C.visualizer.linkBreakVisualizer typename "\"inet.visualizer.canvas.linklayer.LinkBreakCanvasVisualizer\""
par S2C.visualizer.linkBreakVisualizer visualizationTargetModule "\"^.^\""
par S2C.visualizer.linkBreakVisualizer visualizationSubjectModule "\"^.^\""
par S2C.visualizer.linkBreakVisualizer tags "\"\""
par S2C.visualizer.linkBreakVisualizer displayLinkBreaks false
par S2C.visualizer.linkBreakVisualizer nodeFilter "\"*\""
attr mutable ""
par S2C.visualizer.linkBreakVisualizer interfaceFilter "\"*\""
attr mutable ""
par S2C.visualizer.linkBreakVisualizer packetFilter "(omnetpp::cValueHolder)holder: \"*\""
attr mutable ""
par S2C.visualizer.linkBreakVisualizer icon "\"status/stop\""
par S2C.visualizer.linkBreakVisualizer iconTintAmount 0
par S2C.visualizer.linkBreakVisualizer iconTintColor "\"\""
par S2C.visualizer.linkBreakVisualizer fadeOutMode "\"realTime\""
attr enum realTime,animationTime,simulationTime
par S2C.visualizer.linkBreakVisualizer fadeOutTime 1s
attr unit s
par S2C.visualizer.linkBreakVisualizer fadeOutAnimationSpeed 0
par S2C.visualizer.linkBreakVisualizer zIndex 2
par S2C.visualizer.ieee80211Visualizer typename "\"inet.visualizer.canvas.linklayer.Ieee80211CanvasVisualizer\""
par S2C.visualizer.ieee80211Visualizer visualizationTargetModule "\"^.^\""
par S2C.visualizer.ieee80211Visualizer visualizationSubjectModule "\"^.^\""
par S2C.visualizer.ieee80211Visualizer tags "\"\""
par S2C.visualizer.ieee80211Visualizer networkNodeVisualizerModule "\"^.networkNodeVisualizer\""
par S2C.visualizer.ieee80211Visualizer displayAssociations false
par S2C.visualizer.ieee80211Visualizer nodeFilter "\"*\""
attr mutable ""
par S2C.visualizer.ieee80211Visualizer interfaceFilter "\"*\""
attr mutable ""
par S2C.visualizer.ieee80211Visualizer minPower -85dBm
attr unit dBm
par S2C.visualizer.ieee80211Visualizer maxPower -50dBm
attr unit dBm
par S2C.visualizer.ieee80211Visualizer icons "\"misc/signal_power_0 misc/signal_power_1 misc/signal_power_2 misc/signal_power_3\""
par S2C.visualizer.ieee80211Visualizer iconColor "\"dark\""
attr enum light,dark
par S2C.visualizer.ieee80211Visualizer labelFont "\"<default>\""
par S2C.visualizer.ieee80211Visualizer labelColor "\"black\""
par S2C.visualizer.ieee80211Visualizer placementHint "\"top\""
par S2C.visualizer.ieee80211Visualizer placementPriority 0
par S2C.visualizer.ieee80211Visualizer zIndex 2
par S2C.visualizer.networkRouteVisualizer typename "\"inet.visualizer.canvas.networklayer.NetworkRouteCanvasVisualizer\""
par S2C.visualizer.networkRouteVisualizer visualizationTargetModule "\"^.^\""
par S2C.visualizer.networkRouteVisualizer visualizationSubjectModule "\"^.^\""
par S2C.visualizer.networkRouteVisualizer tags "\"\""
par S2C.visualizer.networkRouteVisualizer displayRoutes false
par S2C.visualizer.networkRouteVisualizer startPathSignal "\"packetReceivedFromUpper\""
par S2C.visualizer.networkRouteVisualizer extendPathSignal "\"packetReceivedFromLower\""
par S2C.visualizer.networkRouteVisualizer endPathSignal "\"packetSentToUpper\""
par S2C.visualizer.networkRouteVisualizer nodeFilter "\"*\""
attr mutable ""
par S2C.visualizer.networkRouteVisualizer packetFilter "(omnetpp::cValueHolder)holder: \"*\""
attr mutable ""
par S2C.visualizer.networkRouteVisualizer lineColor "\"dark\""
attr enum light,dark
par S2C.visualizer.networkRouteVisualizer lineStyle "\"solid\""
par S2C.visualizer.networkRouteVisualizer lineWidth 3
par S2C.visualizer.networkRouteVisualizer lineSmooth false
par S2C.visualizer.networkRouteVisualizer lineShift 16
par S2C.visualizer.networkRouteVisualizer lineShiftMode "\"normal\""
par S2C.visualizer.networkRouteVisualizer lineContactSpacing 3
par S2C.visualizer.networkRouteVisualizer lineContactMode "\"rectangular\""
attr enum circular,rectangular
par S2C.visualizer.networkRouteVisualizer labelFormat "\"%n\""
par S2C.visualizer.networkRouteVisualizer labelFont "\"<default>, 8px\""
par S2C.visualizer.networkRouteVisualizer labelColor "\"\""
par S2C.visualizer.networkRouteVisualizer fadeOutMode "\"realTime\""
attr enum realTime,animationTime,simulationTime
par S2C.visualizer.networkRouteVisualizer fadeOutTime 1s
attr unit s
par S2C.visualizer.networkRouteVisualizer fadeOutAnimationSpeed 0
par S2C.visualizer.networkRouteVisualizer zIndex 3
par S2C.visualizer.routingTableVisualizer typename "\"inet.visualizer.canvas.networklayer.RoutingTableCanvasVisualizer\""
par S2C.visualizer.routingTableVisualizer visualizationTargetModule "\"^.^\""
par S2C.visualizer.routingTableVisualizer visualizationSubjectModule "\"^.^\""
par S2C.visualizer.routingTableVisualizer tags "\"\""
par S2C.visualizer.routingTableVisualizer displayRoutingTables false
par S2C.visualizer.routingTableVisualizer displayRoutesIndividually true
par S2C.visualizer.routingTableVisualizer displayLabels true
par S2C.visualizer.routingTableVisualizer destinationFilter "\"*\""
attr mutable ""
par S2C.visualizer.routingTableVisualizer nodeFilter "\"*\""
attr mutable ""
par S2C.visualizer.routingTableVisualizer lineColor "\"black\""
par S2C.visualizer.routingTableVisualizer lineStyle "\"solid\""
par S2C.visualizer.routingTableVisualizer lineWidth 2
par S2C.visualizer.routingTableVisualizer lineShift 16
par S2C.visualizer.routingTableVisualizer lineShiftMode "\"normal\""
par S2C.visualizer.routingTableVisualizer lineContactSpacing 3
par S2C.visualizer.routingTableVisualizer lineContactMode "\"rectangular\""
attr enum circular,rectangular
par S2C.visualizer.routingTableVisualizer labelFormat "\"%d/%m -> %g (%n)\""
attr mutable ""
par S2C.visualizer.routingTableVisualizer labelFont "\"<default>, 8px\""
par S2C.visualizer.routingTableVisualizer labelColor "\"black\""
par S2C.visualizer.routingTableVisualizer zIndex 0
par S2C.visualizer.transportRouteVisualizer typename "\"inet.visualizer.canvas.transportlayer.TransportRouteCanvasVisualizer\""
par S2C.visualizer.transportRouteVisualizer visualizationTargetModule "\"^.^\""
par S2C.visualizer.transportRouteVisualizer visualizationSubjectModule "\"^.^\""
par S2C.visualizer.transportRouteVisualizer tags "\"\""
par S2C.visualizer.transportRouteVisualizer displayRoutes false
par S2C.visualizer.transportRouteVisualizer startPathSignal "\"packetReceivedFromUpper\""
par S2C.visualizer.transportRouteVisualizer extendPathSignal "\"packetReceivedFromLower\""
par S2C.visualizer.transportRouteVisualizer endPathSignal "\"packetSentToUpper\""
par S2C.visualizer.transportRouteVisualizer nodeFilter "\"*\""
attr mutable ""
par S2C.visualizer.transportRouteVisualizer packetFilter "(omnetpp::cValueHolder)holder: \"*\""
attr mutable ""
par S2C.visualizer.transportRouteVisualizer lineColor "\"dark\""
attr enum light,dark
par S2C.visualizer.transportRouteVisualizer lineStyle "\"solid\""
par S2C.visualizer.transportRouteVisualizer lineWidth 3
par S2C.visualizer.transportRouteVisualizer lineSmooth false
par S2C.visualizer.transportRouteVisualizer lineShift 16
par S2C.visualizer.transportRouteVisualizer lineShiftMode "\"normal\""
par S2C.visualizer.transportRouteVisualizer lineContactSpacing 3
par S2C.visualizer.transportRouteVisualizer lineContactMode "\"rectangular\""
attr enum circular,rectangular
par S2C.visualizer.transportRouteVisualizer labelFormat "\"%n\""
par S2C.visualizer.transportRouteVisualizer labelFont "\"<default>, 8px\""
par S2C.visualizer.transportRouteVisualizer labelColor "\"\""
par S2C.visualizer.transportRouteVisualizer fadeOutMode "\"realTime\""
attr enum realTime,animationTime,simulationTime
par S2C.visualizer.transportRouteVisualizer fadeOutTime 1s
attr unit s
par S2C.visualizer.transportRouteVisualizer fadeOutAnimationSpeed 0
par S2C.visualizer.transportRouteVisualizer zIndex 4
par S2C.visualizer.transportConnectionVisualizer typename "\"inet.visualizer.canvas.transportlayer.TransportConnectionCanvasVisualizer\""
par S2C.visualizer.transportConnectionVisualizer visualizationTargetModule "\"^.^\""
par S2C.visualizer.transportConnectionVisualizer visualizationSubjectModule "\"^.^\""
par S2C.visualizer.transportConnectionVisualizer tags "\"\""
par S2C.visualizer.transportConnectionVisualizer networkNodeVisualizerModule "\"^.networkNodeVisualizer\""
par S2C.visualizer.transportConnectionVisualizer displayTransportConnections false
par S2C.visualizer.transportConnectionVisualizer sourceNodeFilter "\"*\""
attr mutable ""
par S2C.visualizer.transportConnectionVisualizer sourcePortFilter "\"*\""
attr mutable ""
par S2C.visualizer.transportConnectionVisualizer destinationNodeFilter "\"*\""
attr mutable ""
par S2C.visualizer.transportConnectionVisualizer destinationPortFilter "\"*\""
attr mutable ""
par S2C.visualizer.transportConnectionVisualizer icon "\"misc/marker_s\""
par S2C.visualizer.transportConnectionVisualizer iconColor "\"dark\""
attr enum light,dark
par S2C.visualizer.transportConnectionVisualizer labelFont "\"<default>\""
par S2C.visualizer.transportConnectionVisualizer labelColor "\"black\""
par S2C.visualizer.transportConnectionVisualizer placementHint "\"top\""
par S2C.visualizer.transportConnectionVisualizer placementPriority 0
par S2C.visualizer.transportConnectionVisualizer zIndex 4
par S2C.visualizer.failureProtectionConfigurationVisualizer typename "\"inet.visualizer.canvas.configurator.FailureProtectionConfigurationCanvasVisualizer\""
par S2C.visualizer.failureProtectionConfigurationVisualizer visualizationTargetModule "\"^.^\""
par S2C.visualizer.failureProtectionConfigurationVisualizer visualizationSubjectModule "\"^.^\""
par S2C.visualizer.failureProtectionConfigurationVisualizer tags "\"\""
par S2C.visualizer.failureProtectionConfigurationVisualizer displayTrees false
par S2C.visualizer.failureProtectionConfigurationVisualizer lineColor "\"dark\""
attr enum light,dark
par S2C.visualizer.failureProtectionConfigurationVisualizer lineStyle "\"solid\""
par S2C.visualizer.failureProtectionConfigurationVisualizer lineWidth 3
par S2C.visualizer.failureProtectionConfigurationVisualizer lineSmooth false
par S2C.visualizer.failureProtectionConfigurationVisualizer lineShift 16
par S2C.visualizer.failureProtectionConfigurationVisualizer lineShiftMode "\"normal\""
par S2C.visualizer.failureProtectionConfigurationVisualizer lineContactSpacing 3
par S2C.visualizer.failureProtectionConfigurationVisualizer lineContactMode "\"rectangular\""
attr enum circular,rectangular
par S2C.visualizer.failureProtectionConfigurationVisualizer failureProtectionConfiguratorModule "\"failureProtectionConfigurator\""
par S2C.visualizer.failureProtectionConfigurationVisualizer streamFilter "\"*\""
par S2C.visualizer.failureProtectionConfigurationVisualizer zIndex 3
par S2C.visualizer.streamRedundancyConfigurationVisualizer typename "\"inet.visualizer.canvas.configurator.StreamRedundancyConfigurationCanvasVisualizer\""
par S2C.visualizer.streamRedundancyConfigurationVisualizer visualizationTargetModule "\"^.^\""
par S2C.visualizer.streamRedundancyConfigurationVisualizer visualizationSubjectModule "\"^.^\""
par S2C.visualizer.streamRedundancyConfigurationVisualizer tags "\"\""
par S2C.visualizer.streamRedundancyConfigurationVisualizer displayTrees false
par S2C.visualizer.streamRedundancyConfigurationVisualizer lineColor "\"dark\""
attr enum light,dark
par S2C.visualizer.streamRedundancyConfigurationVisualizer lineStyle "\"solid\""
par S2C.visualizer.streamRedundancyConfigurationVisualizer lineWidth 3
par S2C.visualizer.streamRedundancyConfigurationVisualizer lineSmooth false
par S2C.visualizer.streamRedundancyConfigurationVisualizer lineShift 16
par S2C.visualizer.streamRedundancyConfigurationVisualizer lineShiftMode "\"normal\""
par S2C.visualizer.streamRedundancyConfigurationVisualizer lineContactSpacing 3
par S2C.visualizer.streamRedundancyConfigurationVisualizer lineContactMode "\"rectangular\""
attr enum circular,rectangular
par S2C.visualizer.streamRedundancyConfigurationVisualizer streamRedundancyConfiguratorModule "\"streamRedundancyConfigurator\""
par S2C.visualizer.streamRedundancyConfigurationVisualizer streamFilter "\"*\""
par S2C.visualizer.streamRedundancyConfigurationVisualizer zIndex 3
par S2C.visualizer typename "\"inet.visualizer.canvas.integrated.IntegratedCanvasVisualizer\""
par S2C.configurator typename "\"inet.networklayer.configurator.ipv4.Ipv4NetworkConfigurator\""
par S2C.configurator minLinkWeight 0.001
par S2C.configurator configureIsolatedNetworksSeparatly false
par S2C.configurator config "<config>...</config> at content:1"
par S2C.configurator assignAddresses true
par S2C.configurator assignUniqueAddresses true
par S2C.configurator assignDisjunctSubnetAddresses true
par S2C.configurator addStaticRoutes true
par S2C.configurator addDefaultRoutes true
par S2C.configurator addSubnetRoutes true
par S2C.configurator addDirectRoutes true
par S2C.configurator optimizeRoutes true
par S2C.configurator dumpTopology false
par S2C.configurator dumpLinks false
par S2C.configurator dumpAddresses false
par S2C.configurator dumpRoutes false
par S2C.configurator dumpConfig "\"\""
par S2C.macForwardingTableConfigurator typename "\"inet.linklayer.configurator.MacForwardingTableConfigurator\""
par S2C.carrierAggregation.componentCarrier[0] typename "\"simu5g.common.carrierAggregation.ComponentCarrier\""
par S2C.carrierAggregation.componentCarrier[0] carrierFrequency 2GHz
attr unit GHz
par S2C.carrierAggregation.componentCarrier[0] numBands 6
par S2C.carrierAggregation.componentCarrier[0] numerologyIndex 0
par S2C.carrierAggregation.componentCarrier[0] useTdd false
par S2C.carrierAggregation.componentCarrier[0] tddNumSymbolsDl 7
par S2C.carrierAggregation.componentCarrier[0] tddNumSymbolsUl 7
par S2C.carrierAggregation typename "\"simu5g.common.carrierAggregation.CarrierAggregation\""
par S2C.carrierAggregation numComponentCarriers 1
par S2C.channelControl typename "\"simu5g.world.radio.LteChannelControl\""
par S2C.channelControl coreDebug false
par S2C.channelControl pMax 20mW
attr unit mW
par S2C.channelControl sat -110dBm
attr unit dBm
par S2C.channelControl alpha 2
par S2C.channelControl carrierFrequency 2.4e+09Hz
attr unit Hz
par S2C.channelControl numChannels 1
par S2C.channelControl propagationModel "\"FreeSpaceModel\""
attr enum FreeSpaceModel,TwoRayGroundModel,RiceModel,RayleighModel,NakagamiModel,LogNormalShadowingModel
par S2C.routingRecorder typename "\"inet.networklayer.ipv4.RoutingTableRecorder\""
par S2C.routingRecorder enabled true
par S2C.binder typename "\"simu5g.common.binder.Binder\""
par S2C.binder blerShift 0
par S2C.binder maxDataRatePerRb 1.16Mbps
attr unit Mbps
par S2C.binder printTrafficGeneratorConfig false
par S2C.Server.ethg$i[0].channel typename "\"ned.IdealChannel\""
par S2C.Server.eth[0].phys$o.channel typename "\"ned.IdealChannel\""
par S2C.Server.interfaceTable typename "\"inet.networklayer.common.InterfaceTable\""
par S2C.Server.interfaceTable displayAddresses false
par S2C.Server.cb typename "\"inet.common.MessageDispatcher\""
par S2C.Server.cb displayStringTextFormat "\"processed %p pk (%l)\""
par S2C.Server.cb forwardServiceRegistration true
par S2C.Server.cb forwardProtocolRegistration true
par S2C.Server.bridging.directionReverser.upperLayerIn.channel typename "\"ned.IdealChannel\""
par S2C.Server.bridging.directionReverser.join.out.channel typename "\"ned.IdealChannel\""
par S2C.Server.bridging.directionReverser.lowerLayerIn.channel typename "\"ned.IdealChannel\""
par S2C.Server.bridging.directionReverser.fork.out[0].channel typename "\"ned.IdealChannel\""
par S2C.Server.bridging.directionReverser.fork typename "\"inet.common.MessageDispatcher\""
par S2C.Server.bridging.directionReverser.fork displayStringTextFormat "\"processed %p pk (%l)\""
par S2C.Server.bridging.directionReverser.fork forwardServiceRegistration false
par S2C.Server.bridging.directionReverser.fork forwardProtocolRegistration true
par S2C.Server.bridging.directionReverser.reverser typename "\"inet.linklayer.ethernet.common.PacketDirectionReverser\""
par S2C.Server.bridging.directionReverser.reverser displayStringTextFormat "\"processed %p pk (%l)\""
par S2C.Server.bridging.directionReverser.reverser forwardVlan true
par S2C.Server.bridging.directionReverser.reverser forwardPcp true
par S2C.Server.bridging.directionReverser.reverser excludeEncapsulationProtocols []
scalar S2C.Server.bridging.directionReverser.reverser outgoingPackets:count 0
attr recordingmode count
attr source "merge(packetPushedOut, packetPulledOut)"
attr title "outgoing packets, count"
attr unit pk
scalar S2C.Server.bridging.directionReverser.reverser outgoingPacketLengths:sum 0
attr interpolationmode none
attr recordingmode sum
attr source "packetLength(merge(packetPushedOut, packetPulledOut))"
attr title "outgoing packet lengths, sum"
attr unit b
statistic S2C.Server.bridging.directionReverser.reverser outgoingPacketLengths:histogram
field count 0
field mean -nan
field stddev nan
field min nan
field max nan
field sum 0
field sqrsum 0
attr interpolationmode none
attr recordingmode histogram
attr source "packetLength(merge(packetPushedOut, packetPulledOut))"
attr title "outgoing packet lengths"
attr unit b
bin	-inf	0
bin	0	0
bin	1	0
scalar S2C.Server.bridging.directionReverser.reverser flowOutgoingPacketLengths:sum 0
attr interpolationmode none
attr recordingmode sum
attr source "packetLength(demuxFlow(merge(packetPushedOut, packetPulledOut)))"
attr title "flow specific outgoing packet lengths, sum"
attr unit b
statistic S2C.Server.bridging.directionReverser.reverser flowOutgoingPacketLengths:histogram
field count 0
field mean -nan
field stddev nan
field min nan
field max nan
field sum 0
field sqrsum 0
attr interpolationmode none
attr recordingmode histogram
attr source "packetLength(demuxFlow(merge(packetPushedOut, packetPulledOut)))"
attr title "flow specific outgoing packet lengths"
attr unit b
bin	-inf	0
bin	0	0
bin	1	0
scalar S2C.Server.bridging.directionReverser.reverser incomingPackets:count 0
attr recordingmode count
attr source "merge(packetPushedIn, packetPulledIn)"
attr title "incoming packets, count"
attr unit pk
scalar S2C.Server.bridging.directionReverser.reverser incomingPacketLengths:sum 0
attr interpolationmode none
attr recordingmode sum
attr source "packetLength(merge(packetPushedIn, packetPulledIn))"
attr title "incoming packet lengths, sum"
attr unit b
statistic S2C.Server.bridging.directionReverser.reverser incomingPacketLengths:histogram
field count 0
field mean -nan
field stddev nan
field min nan
field max nan
field sum 0
field sqrsum 0
attr interpolationmode none
attr recordingmode histogram
attr source "packetLength(merge(packetPushedIn, packetPulledIn))"
attr title "incoming packet lengths"
attr unit b
bin	-inf	0
bin	0	0
bin	1	0
scalar S2C.Server.bridging.directionReverser.reverser flowIncomingPacketLengths:sum 0
attr interpolationmode none
attr recordingmode sum
attr source "packetLength(demuxFlow(merge(packetPushedIn, packetPulledIn)))"
attr title "flow specific incoming packet lengths, sum"
attr unit b
statistic S2C.Server.bridging.directionReverser.reverser flowIncomingPacketLengths:histogram
field count 0
field mean -nan
field stddev nan
field min nan
field max nan
field sum 0
field sqrsum 0
attr interpolationmode none
attr recordingmode histogram
attr source "packetLength(demuxFlow(merge(packetPushedIn, packetPulledIn)))"
attr title "flow specific incoming packet lengths"
attr unit b
bin	-inf	0
bin	0	0
bin	1	0
par S2C.Server.bridging.directionReverser.join typename "\"inet.queueing.common.PacketMultiplexer\""
par S2C.Server.bridging.directionReverser.join displayStringTextFormat "\"passed %p pk (%l)\""
par S2C.Server.bridging.directionReverser.join forwardServiceRegistration true
par S2C.Server.bridging.directionReverser.join forwardProtocolRegistration false
scalar S2C.Server.bridging.directionReverser.join packets:count 0
attr recordingmode count
attr source "merge(packetPushed, packetPulled)"
attr title "packets, count"
attr unit pk
scalar S2C.Server.bridging.directionReverser.join packetLengths:sum 0
attr interpolationmode none
attr recordingmode sum
attr source "packetLength(merge(packetPushed, packetPulled))"
attr title "packet lengths, sum"
attr unit b
statistic S2C.Server.bridging.directionReverser.join packetLengths:histogram
field count 0
field mean -nan
field stddev nan
field min nan
field max nan
field sum 0
field sqrsum 0
attr interpolationmode none
attr recordingmode histogram
attr source "packetLength(merge(packetPushed, packetPulled))"
attr title "packet lengths"
attr unit b
bin	-inf	0
bin	0	0
bin	1	0
par S2C.Server.bridging.directionReverser typename "\"inet.linklayer.ethernet.common.DirectionReverserLayer\""
par S2C.Server.bridging.streamIdentifier.upperLayerIn.channel typename "\"ned.IdealChannel\""
par S2C.Server.bridging.streamIdentifier.identifier.out.channel typename "\"ned.IdealChannel\""
par S2C.Server.bridging.streamIdentifier.identifier typename "\"inet.protocolelement.redundancy.StreamIdentifier\""
par S2C.Server.bridging.streamIdentifier.identifier displayStringTextFormat "\"processed %p pk (%l)\""
par S2C.Server.bridging.streamIdentifier.identifier hasSequenceNumbering false
par S2C.Server.bridging.streamIdentifier.identifier mapping "[{packetFilter: (omnetpp::cOwnedDynamicExpression)mapping.array2.map1., stream: \"besteffort\"}, {packetFilter: (omnetpp::cOwnedDynamicExpression)mapping.array2.map2., stream: \"video\"}]"
attr mutable ""
scalar S2C.Server.bridging.streamIdentifier.identifier outgoingPackets:count 0
attr recordingmode count
attr source "merge(packetPushedOut, packetPulledOut)"
attr title "outgoing packets, count"
attr unit pk
scalar S2C.Server.bridging.streamIdentifier.identifier outgoingPacketLengths:sum 0
attr interpolationmode none
attr recordingmode sum
attr source "packetLength(merge(packetPushedOut, packetPulledOut))"
attr title "outgoing packet lengths, sum"
attr unit b
statistic S2C.Server.bridging.streamIdentifier.identifier outgoingPacketLengths:histogram
field count 0
field mean -nan
field stddev nan
field min nan
field max nan
field sum 0
field sqrsum 0
attr interpolationmode none
attr recordingmode histogram
attr source "packetLength(merge(packetPushedOut, packetPulledOut))"
attr title "outgoing packet lengths"
attr unit b
bin	-inf	0
bin	0	0
bin	1	0
scalar S2C.Server.bridging.streamIdentifier.identifier flowOutgoingPacketLengths:sum 0
attr interpolationmode none
attr recordingmode sum
attr source "packetLength(demuxFlow(merge(packetPushedOut, packetPulledOut)))"
attr title "flow specific outgoing packet lengths, sum"
attr unit b
statistic S2C.Server.bridging.streamIdentifier.identifier flowOutgoingPacketLengths:histogram
field count 0
field mean -nan
field stddev nan
field min nan
field max nan
field sum 0
field sqrsum 0
attr interpolationmode none
attr recordingmode histogram
attr source "packetLength(demuxFlow(merge(packetPushedOut, packetPulledOut)))"
attr title "flow specific outgoing packet lengths"
attr unit b
bin	-inf	0
bin	0	0
bin	1	0
scalar S2C.Server.bridging.streamIdentifier.identifier incomingPackets:count 0
attr recordingmode count
attr source "merge(packetPushedIn, packetPulledIn)"
attr title "incoming packets, count"
attr unit pk
scalar S2C.Server.bridging.streamIdentifier.identifier incomingPacketLengths:sum 0
attr interpolationmode none
attr recordingmode sum
attr source "packetLength(merge(packetPushedIn, packetPulledIn))"
attr title "incoming packet lengths, sum"
attr unit b
statistic S2C.Server.bridging.streamIdentifier.identifier incomingPacketLengths:histogram
field count 0
field mean -nan
field stddev nan
field min nan
field max nan
field sum 0
field sqrsum 0
attr interpolationmode none
attr recordingmode histogram
attr source "packetLength(merge(packetPushedIn, packetPulledIn))"
attr title "incoming packet lengths"
attr unit b
bin	-inf	0
bin	0	0
bin	1	0
scalar S2C.Server.bridging.streamIdentifier.identifier flowIncomingPacketLengths:sum 0
attr interpolationmode none
attr recordingmode sum
attr source "packetLength(demuxFlow(merge(packetPushedIn, packetPulledIn)))"
attr title "flow specific incoming packet lengths, sum"
attr unit b
statistic S2C.Server.bridging.streamIdentifier.identifier flowIncomingPacketLengths:histogram
field count 0
field mean -nan
field stddev nan
field min nan
field max nan
field sum 0
field sqrsum 0
attr interpolationmode none
attr recordingmode histogram
attr source "packetLength(demuxFlow(merge(packetPushedIn, packetPulledIn)))"
attr title "flow specific incoming packet lengths"
attr unit b
bin	-inf	0
bin	0	0
bin	1	0
par S2C.Server.bridging.streamIdentifier typename "\"inet.protocolelement.redundancy.StreamIdentifierLayer\""
par S2C.Server.bridging.streamCoder.upperLayerIn.channel typename "\"ned.IdealChannel\""
par S2C.Server.bridging.streamCoder.encoder.out.channel typename "\"ned.IdealChannel\""
par S2C.Server.bridging.streamCoder.lowerLayerIn.channel typename "\"ned.IdealChannel\""
par S2C.Server.bridging.streamCoder.decoder.out.channel typename "\"ned.IdealChannel\""
par S2C.Server.bridging.streamCoder.decoder typename "\"inet.protocolelement.redundancy.StreamDecoder\""
par S2C.Server.bridging.streamCoder.decoder displayStringTextFormat "\"processed %p pk (%l)\""
par S2C.Server.bridging.streamCoder.decoder interfaceTableModule "\"S2C.Server.interfaceTable\""
par S2C.Server.bridging.streamCoder.decoder mapping []
attr mutable ""
scalar S2C.Server.bridging.streamCoder.decoder outgoingPackets:count 99
attr recordingmode count
attr source "merge(packetPushedOut, packetPulledOut)"
attr title "outgoing packets, count"
attr unit pk
scalar S2C.Server.bridging.streamCoder.decoder outgoingPacketLengths:sum 83160
attr interpolationmode none
attr recordingmode sum
attr source "packetLength(merge(packetPushedOut, packetPulledOut))"
attr title "outgoing packet lengths, sum"
attr unit b
statistic S2C.Server.bridging.streamCoder.decoder outgoingPacketLengths:histogram
field count 99
field mean 840
field stddev 0
field min 840
field max 840
field sum 83160
field sqrsum 69854400
attr interpolationmode none
attr recordingmode histogram
attr source "packetLength(merge(packetPushedOut, packetPulledOut))"
attr title "outgoing packet lengths"
attr unit b
bin	-inf	0
bin	839	0
bin	840	99
bin	841	0
scalar S2C.Server.bridging.streamCoder.decoder flowOutgoingPacketLengths:sum 0
attr interpolationmode none
attr recordingmode sum
attr source "packetLength(demuxFlow(merge(packetPushedOut, packetPulledOut)))"
attr title "flow specific outgoing packet lengths, sum"
attr unit b
statistic S2C.Server.bridging.streamCoder.decoder flowOutgoingPacketLengths:histogram
field count 0
field mean -nan
field stddev nan
field min nan
field max nan
field sum 0
field sqrsum 0
attr interpolationmode none
attr recordingmode histogram
attr source "packetLength(demuxFlow(merge(packetPushedOut, packetPulledOut)))"
attr title "flow specific outgoing packet lengths"
attr unit b
bin	-inf	0
bin	0	0
bin	1	0
scalar S2C.Server.bridging.streamCoder.decoder incomingPackets:count 99
attr recordingmode count
attr source "merge(packetPushedIn, packetPulledIn)"
attr title "incoming packets, count"
attr unit pk
scalar S2C.Server.bridging.streamCoder.decoder incomingPacketLengths:sum 83160
attr interpolationmode none
attr recordingmode sum
attr source "packetLength(merge(packetPushedIn, packetPulledIn))"
attr title "incoming packet lengths, sum"
attr unit b
statistic S2C.Server.bridging.streamCoder.decoder incomingPacketLengths:histogram
field count 99
field mean 840
field stddev 0
field min 840
field max 840
field sum 83160
field sqrsum 69854400
attr interpolationmode none
attr recordingmode histogram
attr source "packetLength(merge(packetPushedIn, packetPulledIn))"
attr title "incoming packet lengths"
attr unit b
bin	-inf	0
bin	839	0
bin	840	99
bin	841	0
scalar S2C.Server.bridging.streamCoder.decoder flowIncomingPacketLengths:sum 0
attr interpolationmode none
attr recordingmode sum
attr source "packetLength(demuxFlow(merge(packetPushedIn, packetPulledIn)))"
attr title "flow specific incoming packet lengths, sum"
attr unit b
statistic S2C.Server.bridging.streamCoder.decoder flowIncomingPacketLengths:histogram
field count 0
field mean -nan
field stddev nan
field min nan
field max nan
field sum 0
field sqrsum 0
attr interpolationmode none
attr recordingmode histogram
attr source "packetLength(demuxFlow(merge(packetPushedIn, packetPulledIn)))"
attr title "flow specific incoming packet lengths"
attr unit b
bin	-inf	0
bin	0	0
bin	1	0
par S2C.Server.bridging.streamCoder.encoder typename "\"inet.protocolelement.redundancy.StreamEncoder\""
par S2C.Server.bridging.streamCoder.encoder displayStringTextFormat "\"processed %p pk (%l)\""
par S2C.Server.bridging.streamCoder.encoder mapping "[{pcp: 0, stream: \"besteffort\"}, {pcp: 4, stream: \"video\"}]"
attr mutable ""
scalar S2C.Server.bridging.streamCoder.encoder outgoingPackets:count 0
attr recordingmode count
attr source "merge(packetPushedOut, packetPulledOut)"
attr title "outgoing packets, count"
attr unit pk
scalar S2C.Server.bridging.streamCoder.encoder outgoingPacketLengths:sum 0
attr interpolationmode none
attr recordingmode sum
attr source "packetLength(merge(packetPushedOut, packetPulledOut))"
attr title "outgoing packet lengths, sum"
attr unit b
statistic S2C.Server.bridging.streamCoder.encoder outgoingPacketLengths:histogram
field count 0
field mean -nan
field stddev nan
field min nan
field max nan
field sum 0
field sqrsum 0
attr interpolationmode none
attr recordingmode histogram
attr source "packetLength(merge(packetPushedOut, packetPulledOut))"
attr title "outgoing packet lengths"
attr unit b
bin	-inf	0
bin	0	0
bin	1	0
scalar S2C.Server.bridging.streamCoder.encoder flowOutgoingPacketLengths:sum 0
attr interpolationmode none
attr recordingmode sum
attr source "packetLength(demuxFlow(merge(packetPushedOut, packetPulledOut)))"
attr title "flow specific outgoing packet lengths, sum"
attr unit b
statistic S2C.Server.bridging.streamCoder.encoder flowOutgoingPacketLengths:histogram
field count 0
field mean -nan
field stddev nan
field min nan
field max nan
field sum 0
field sqrsum 0
attr interpolationmode none
attr recordingmode histogram
attr source "packetLength(demuxFlow(merge(packetPushedOut, packetPulledOut)))"
attr title "flow specific outgoing packet lengths"
attr unit b
bin	-inf	0
bin	0	0
bin	1	0
scalar S2C.Server.bridging.streamCoder.encoder incomingPackets:count 0
attr recordingmode count
attr source "merge(packetPushedIn, packetPulledIn)"
attr title "incoming packets, count"
attr unit pk
scalar S2C.Server.bridging.streamCoder.encoder incomingPacketLengths:sum 0
attr interpolationmode none
attr recordingmode sum
attr source "packetLength(merge(packetPushedIn, packetPulledIn))"
attr title "incoming packet lengths, sum"
attr unit b
statistic S2C.Server.bridging.streamCoder.encoder incomingPacketLengths:histogram
field count 0
field mean -nan
field stddev nan
field min nan
field max nan
field sum 0
field sqrsum 0
attr interpolationmode none
attr recordingmode histogram
attr source "packetLength(merge(packetPushedIn, packetPulledIn))"
attr title "incoming packet lengths"
attr unit b
bin	-inf	0
bin	0	0
bin	1	0
scalar S2C.Server.bridging.streamCoder.encoder flowIncomingPacketLengths:sum 0
attr interpolationmode none
attr recordingmode sum
attr source "packetLength(demuxFlow(merge(packetPushedIn, packetPulledIn)))"
attr title "flow specific incoming packet lengths, sum"
attr unit b
statistic S2C.Server.bridging.streamCoder.encoder flowIncomingPacketLengths:histogram
field count 0
field mean -nan
field stddev nan
field min nan
field max nan
field sum 0
field sqrsum 0
attr interpolationmode none
attr recordingmode histogram
attr source "packetLength(demuxFlow(merge(packetPushedIn, packetPulledIn)))"
attr title "flow specific incoming packet lengths"
attr unit b
bin	-inf	0
bin	0	0
bin	1	0
par S2C.Server.bridging.streamCoder typename "\"inet.protocolelement.redundancy.StreamCoderLayer\""
par S2C.Server.bridging.streamCoder interfaceTableModule "\"S2C.Server.interfaceTable\""
par S2C.Server.bridging typename "\"inet.linklayer.ethernet.common.BridgingLayer\""
par S2C.Server.bridging macTableModule "\"\""
par S2C.Server.bridging interfaceTableModule "\"S2C.Server.interfaceTable\""
par S2C.Server.bl typename "\"inet.common.MessageDispatcher\""
par S2C.Server.bl displayStringTextFormat "\"processed %p pk (%l)\""
par S2C.Server.bl forwardServiceRegistration true
par S2C.Server.bl forwardProtocolRegistration true
par S2C.Server.ethernet.fcsInserter.out.channel typename "\"ned.IdealChannel\""
par S2C.Server.ethernet.lowerLayerIn.channel typename "\"ned.IdealChannel\""
par S2C.Server.ethernet.upperLayerIn.channel typename "\"ned.IdealChannel\""
par S2C.Server.ethernet.macHeaderChecker.out.channel typename "\"ned.IdealChannel\""
par S2C.Server.ethernet.macHeaderInserter typename "\"inet.linklayer.ethernet.modular.EthernetMacHeaderInserter\""
par S2C.Server.ethernet.macHeaderInserter displayStringTextFormat "\"processed %p pk (%l)\""
par S2C.Server.ethernet.macHeaderInserter interfaceTableModule "\"S2C.Server.interfaceTable\""
scalar S2C.Server.ethernet.macHeaderInserter outgoingPackets:count 0
attr recordingmode count
attr source "merge(packetPushedOut, packetPulledOut)"
attr title "outgoing packets, count"
attr unit pk
scalar S2C.Server.ethernet.macHeaderInserter outgoingPacketLengths:sum 0
attr interpolationmode none
attr recordingmode sum
attr source "packetLength(merge(packetPushedOut, packetPulledOut))"
attr title "outgoing packet lengths, sum"
attr unit b
statistic S2C.Server.ethernet.macHeaderInserter outgoingPacketLengths:histogram
field count 0
field mean -nan
field stddev nan
field min nan
field max nan
field sum 0
field sqrsum 0
attr interpolationmode none
attr recordingmode histogram
attr source "packetLength(merge(packetPushedOut, packetPulledOut))"
attr title "outgoing packet lengths"
attr unit b
bin	-inf	0
bin	0	0
bin	1	0
scalar S2C.Server.ethernet.macHeaderInserter flowOutgoingPacketLengths:sum 0
attr interpolationmode none
attr recordingmode sum
attr source "packetLength(demuxFlow(merge(packetPushedOut, packetPulledOut)))"
attr title "flow specific outgoing packet lengths, sum"
attr unit b
statistic S2C.Server.ethernet.macHeaderInserter flowOutgoingPacketLengths:histogram
field count 0
field mean -nan
field stddev nan
field min nan
field max nan
field sum 0
field sqrsum 0
attr interpolationmode none
attr recordingmode histogram
attr source "packetLength(demuxFlow(merge(packetPushedOut, packetPulledOut)))"
attr title "flow specific outgoing packet lengths"
attr unit b
bin	-inf	0
bin	0	0
bin	1	0
scalar S2C.Server.ethernet.macHeaderInserter incomingPackets:count 0
attr recordingmode count
attr source "merge(packetPushedIn, packetPulledIn)"
attr title "incoming packets, count"
attr unit pk
scalar S2C.Server.ethernet.macHeaderInserter incomingPacketLengths:sum 0
attr interpolationmode none
attr recordingmode sum
attr source "packetLength(merge(packetPushedIn, packetPulledIn))"
attr title "incoming packet lengths, sum"
attr unit b
statistic S2C.Server.ethernet.macHeaderInserter incomingPacketLengths:histogram
field count 0
field mean -nan
field stddev nan
field min nan
field max nan
field sum 0
field sqrsum 0
attr interpolationmode none
attr recordingmode histogram
attr source "packetLength(merge(packetPushedIn, packetPulledIn))"
attr title "incoming packet lengths"
attr unit b
bin	-inf	0
bin	0	0
bin	1	0
scalar S2C.Server.ethernet.macHeaderInserter flowIncomingPacketLengths:sum 0
attr interpolationmode none
attr recordingmode sum
attr source "packetLength(demuxFlow(merge(packetPushedIn, packetPulledIn)))"
attr title "flow specific incoming packet lengths, sum"
attr unit b
statistic S2C.Server.ethernet.macHeaderInserter flowIncomingPacketLengths:histogram
field count 0
field mean -nan
field stddev nan
field min nan
field max nan
field sum 0
field sqrsum 0
attr interpolationmode none
attr recordingmode histogram
attr source "packetLength(demuxFlow(merge(packetPushedIn, packetPulledIn)))"
attr title "flow specific incoming packet lengths"
attr unit b
bin	-inf	0
bin	0	0
bin	1	0
par S2C.Server.ethernet.paddingInserter typename "\"inet.protocolelement.common.PaddingInserter\""
par S2C.Server.ethernet.paddingInserter displayStringTextFormat "\"processed %p pk (%l)\""
par S2C.Server.ethernet.paddingInserter minLength 480b
attr unit b
par S2C.Server.ethernet.paddingInserter roundingLength 8b
attr unit b
par S2C.Server.ethernet.paddingInserter insertionPosition "\"back\""
attr enum front,back
scalar S2C.Server.ethernet.paddingInserter outgoingPackets:count 0
attr recordingmode count
attr source "merge(packetPushedOut, packetPulledOut)"
attr title "outgoing packets, count"
attr unit pk
scalar S2C.Server.ethernet.paddingInserter outgoingPacketLengths:sum 0
attr interpolationmode none
attr recordingmode sum
attr source "packetLength(merge(packetPushedOut, packetPulledOut))"
attr title "outgoing packet lengths, sum"
attr unit b
statistic S2C.Server.ethernet.paddingInserter outgoingPacketLengths:histogram
field count 0
field mean -nan
field stddev nan
field min nan
field max nan
field sum 0
field sqrsum 0
attr interpolationmode none
attr recordingmode histogram
attr source "packetLength(merge(packetPushedOut, packetPulledOut))"
attr title "outgoing packet lengths"
attr unit b
bin	-inf	0
bin	0	0
bin	1	0
scalar S2C.Server.ethernet.paddingInserter flowOutgoingPacketLengths:sum 0
attr interpolationmode none
attr recordingmode sum
attr source "packetLength(demuxFlow(merge(packetPushedOut, packetPulledOut)))"
attr title "flow specific outgoing packet lengths, sum"
attr unit b
statistic S2C.Server.ethernet.paddingInserter flowOutgoingPacketLengths:histogram
field count 0
field mean -nan
field stddev nan
field min nan
field max nan
field sum 0
field sqrsum 0
attr interpolationmode none
attr recordingmode histogram
attr source "packetLength(demuxFlow(merge(packetPushedOut, packetPulledOut)))"
attr title "flow specific outgoing packet lengths"
attr unit b
bin	-inf	0
bin	0	0
bin	1	0
scalar S2C.Server.ethernet.paddingInserter incomingPackets:count 0
attr recordingmode count
attr source "merge(packetPushedIn, packetPulledIn)"
attr title "incoming packets, count"
attr unit pk
scalar S2C.Server.ethernet.paddingInserter incomingPacketLengths:sum 0
attr interpolationmode none
attr recordingmode sum
attr source "packetLength(merge(packetPushedIn, packetPulledIn))"
attr title "incoming packet lengths, sum"
attr unit b
statistic S2C.Server.ethernet.paddingInserter incomingPacketLengths:histogram
field count 0
field mean -nan
field stddev nan
field min nan
field max nan
field sum 0
field sqrsum 0
attr interpolationmode none
attr recordingmode histogram
attr source "packetLength(merge(packetPushedIn, packetPulledIn))"
attr title "incoming packet lengths"
attr unit b
bin	-inf	0
bin	0	0
bin	1	0
scalar S2C.Server.ethernet.paddingInserter flowIncomingPacketLengths:sum 0
attr interpolationmode none
attr recordingmode sum
attr source "packetLength(demuxFlow(merge(packetPushedIn, packetPulledIn)))"
attr title "flow specific incoming packet lengths, sum"
attr unit b
statistic S2C.Server.ethernet.paddingInserter flowIncomingPacketLengths:histogram
field count 0
field mean -nan
field stddev nan
field min nan
field max nan
field sum 0
field sqrsum 0
attr interpolationmode none
attr recordingmode histogram
attr source "packetLength(demuxFlow(merge(packetPushedIn, packetPulledIn)))"
attr title "flow specific incoming packet lengths"
attr unit b
bin	-inf	0
bin	0	0
bin	1	0
par S2C.Server.ethernet.fcsInserter typename "\"inet.linklayer.ethernet.modular.EthernetFcsInserter\""
par S2C.Server.ethernet.fcsInserter displayStringTextFormat "\"processed %p pk (%l)\""
par S2C.Server.ethernet.fcsInserter fcsMode "\"declared\""
attr enum disabled,declared,computed
scalar S2C.Server.ethernet.fcsInserter outgoingPackets:count 0
attr recordingmode count
attr source "merge(packetPushedOut, packetPulledOut)"
attr title "outgoing packets, count"
attr unit pk
scalar S2C.Server.ethernet.fcsInserter outgoingPacketLengths:sum 0
attr interpolationmode none
attr recordingmode sum
attr source "packetLength(merge(packetPushedOut, packetPulledOut))"
attr title "outgoing packet lengths, sum"
attr unit b
statistic S2C.Server.ethernet.fcsInserter outgoingPacketLengths:histogram
field count 0
field mean -nan
field stddev nan
field min nan
field max nan
field sum 0
field sqrsum 0
attr interpolationmode none
attr recordingmode histogram
attr source "packetLength(merge(packetPushedOut, packetPulledOut))"
attr title "outgoing packet lengths"
attr unit b
bin	-inf	0
bin	0	0
bin	1	0
scalar S2C.Server.ethernet.fcsInserter flowOutgoingPacketLengths:sum 0
attr interpolationmode none
attr recordingmode sum
attr source "packetLength(demuxFlow(merge(packetPushedOut, packetPulledOut)))"
attr title "flow specific outgoing packet lengths, sum"
attr unit b
statistic S2C.Server.ethernet.fcsInserter flowOutgoingPacketLengths:histogram
field count 0
field mean -nan
field stddev nan
field min nan
field max nan
field sum 0
field sqrsum 0
attr interpolationmode none
attr recordingmode histogram
attr source "packetLength(demuxFlow(merge(packetPushedOut, packetPulledOut)))"
attr title "flow specific outgoing packet lengths"
attr unit b
bin	-inf	0
bin	0	0
bin	1	0
scalar S2C.Server.ethernet.fcsInserter incomingPackets:count 0
attr recordingmode count
attr source "merge(packetPushedIn, packetPulledIn)"
attr title "incoming packets, count"
attr unit pk
scalar S2C.Server.ethernet.fcsInserter incomingPacketLengths:sum 0
attr interpolationmode none
attr recordingmode sum
attr source "packetLength(merge(packetPushedIn, packetPulledIn))"
attr title "incoming packet lengths, sum"
attr unit b
statistic S2C.Server.ethernet.fcsInserter incomingPacketLengths:histogram
field count 0
field mean -nan
field stddev nan
field min nan
field max nan
[...]
scalar S2C.u2.DSTT.phyLayer.phyHeaderInserter outgoingPackets:count 0
attr recordingmode count
attr source "merge(packetPushedOut, packetPulledOut)"
attr title "outgoing packets, count"
attr unit pk
scalar S2C.u2.DSTT.phyLayer.phyHeaderInserter outgoingPacketLengths:sum 0
attr interpolationmode none
attr recordingmode sum
attr source "packetLength(merge(packetPushedOut, packetPulledOut))"
attr title "outgoing packet lengths, sum"
attr unit b
statistic S2C.u2.DSTT.phyLayer.phyHeaderInserter outgoingPacketLengths:histogram
field count 0
field mean -nan
field stddev nan
field min nan
field max nan
field sum 0
field sqrsum 0
attr interpolationmode none
attr recordingmode histogram
attr source "packetLength(merge(packetPushedOut, packetPulledOut))"
attr title "outgoing packet lengths"
attr unit b
bin	-inf	0
bin	0	0
bin	1	0
scalar S2C.u2.DSTT.phyLayer.phyHeaderInserter flowOutgoingPacketLengths:sum 0
attr interpolationmode none
attr recordingmode sum
attr source "packetLength(demuxFlow(merge(packetPushedOut, packetPulledOut)))"
attr title "flow specific outgoing packet lengths, sum"
attr unit b
statistic S2C.u2.DSTT.phyLayer.phyHeaderInserter flowOutgoingPacketLengths:histogram
field count 0
field mean -nan
field stddev nan
field min nan
field max nan
field sum 0
field sqrsum 0
attr interpolationmode none
attr recordingmode histogram
attr source "packetLength(demuxFlow(merge(packetPushedOut, packetPulledOut)))"
attr title "flow specific outgoing packet lengths"
attr unit b
bin	-inf	0
bin	0	0
bin	1	0
scalar S2C.u2.DSTT.phyLayer.phyHeaderInserter incomingPackets:count 0
attr recordingmode count
attr source "merge(packetPushedIn, packetPulledIn)"
attr title "incoming packets, count"
attr unit pk
scalar S2C.u2.DSTT.phyLayer.phyHeaderInserter incomingPacketLengths:sum 0
attr interpolationmode none
attr recordingmode sum
attr source "packetLength(merge(packetPushedIn, packetPulledIn))"
attr title "incoming packet lengths, sum"
attr unit b
statistic S2C.u2.DSTT.phyLayer.phyHeaderInserter incomingPacketLengths:histogram
field count 0
field mean -nan
field stddev nan
field min nan
field max nan
field sum 0
field sqrsum 0
attr interpolationmode none
attr recordingmode histogram
attr source "packetLength(merge(packetPushedIn, packetPulledIn))"
attr title "incoming packet lengths"
attr unit b
bin	-inf	0
bin	0	0
bin	1	0
scalar S2C.u2.DSTT.phyLayer.phyHeaderInserter flowIncomingPacketLengths:sum 0
attr interpolationmode none
attr recordingmode sum
attr source "packetLength(demuxFlow(merge(packetPushedIn, packetPulledIn)))"
attr title "flow specific incoming packet lengths, sum"
attr unit b
statistic S2C.u2.DSTT.phyLayer.phyHeaderInserter flowIncomingPacketLengths:histogram
field count 0
field mean -nan
field stddev nan
field min nan
field max nan
field sum 0
field sqrsum 0
attr interpolationmode none
attr recordingmode histogram
attr source "packetLength(demuxFlow(merge(packetPushedIn, packetPulledIn)))"
attr title "flow specific incoming packet lengths"
attr unit b
bin	-inf	0
bin	0	0
bin	1	0
par S2C.u2.DSTT.phyLayer.interFrameGapInserter typename "\"inet.protocolelement.common.InterpacketGapInserter\""
par S2C.u2.DSTT.phyLayer.interFrameGapInserter displayStringTextFormat "\"delayed %p pk (%l)\\nifg: %g\""
par S2C.u2.DSTT.phyLayer.interFrameGapInserter clockModule "\"\""
par S2C.u2.DSTT.phyLayer.interFrameGapInserter initialChannelBusy false
par S2C.u2.DSTT.phyLayer.interFrameGapInserter duration 96s/dropUnit(parent.bitrate)
attr unit s
par S2C.u2.DSTT.phyLayer.outboundEmitter typename "\"inet.protocolelement.common.PacketEmitter\""
par S2C.u2.DSTT.phyLayer.outboundEmitter displayStringTextFormat "\"processed %p pk (%l)\""
par S2C.u2.DSTT.phyLayer.outboundEmitter packetFilter "(omnetpp::cValueHolder)holder: \"*\""
par S2C.u2.DSTT.phyLayer.outboundEmitter direction "\"outbound\""
attr enum undefined,inbound,outbound
par S2C.u2.DSTT.phyLayer.outboundEmitter signalName "\"packetSentToLower\""
scalar S2C.u2.DSTT.phyLayer.outboundEmitter outgoingPackets:count 0
attr recordingmode count
attr source "merge(packetPushedOut, packetPulledOut)"
attr title "outgoing packets, count"
attr unit pk
scalar S2C.u2.DSTT.phyLayer.outboundEmitter outgoingPacketLengths:sum 0
attr interpolationmode none
attr recordingmode sum
attr source "packetLength(merge(packetPushedOut, packetPulledOut))"
attr title "outgoing packet lengths, sum"
attr unit b
statistic S2C.u2.DSTT.phyLayer.outboundEmitter outgoingPacketLengths:histogram
field count 0
field mean -nan
field stddev nan
field min nan
field max nan
field sum 0
field sqrsum 0
attr interpolationmode none
attr recordingmode histogram
attr source "packetLength(merge(packetPushedOut, packetPulledOut))"
attr title "outgoing packet lengths"
attr unit b
bin	-inf	0
bin	0	0
bin	1	0
scalar S2C.u2.DSTT.phyLayer.outboundEmitter flowOutgoingPacketLengths:sum 0
attr interpolationmode none
attr recordingmode sum
attr source "packetLength(demuxFlow(merge(packetPushedOut, packetPulledOut)))"
attr title "flow specific outgoing packet lengths, sum"
attr unit b
statistic S2C.u2.DSTT.phyLayer.outboundEmitter flowOutgoingPacketLengths:histogram
field count 0
field mean -nan
field stddev nan
field min nan
field max nan
field sum 0
field sqrsum 0
attr interpolationmode none
attr recordingmode histogram
attr source "packetLength(demuxFlow(merge(packetPushedOut, packetPulledOut)))"
attr title "flow specific outgoing packet lengths"
attr unit b
bin	-inf	0
bin	0	0
bin	1	0
scalar S2C.u2.DSTT.phyLayer.outboundEmitter incomingPackets:count 0
attr recordingmode count
attr source "merge(packetPushedIn, packetPulledIn)"
attr title "incoming packets, count"
attr unit pk
scalar S2C.u2.DSTT.phyLayer.outboundEmitter incomingPacketLengths:sum 0
attr interpolationmode none
attr recordingmode sum
attr source "packetLength(merge(packetPushedIn, packetPulledIn))"
attr title "incoming packet lengths, sum"
attr unit b
statistic S2C.u2.DSTT.phyLayer.outboundEmitter incomingPacketLengths:histogram
field count 0
field mean -nan
field stddev nan
field min nan
field max nan
field sum 0
field sqrsum 0
attr interpolationmode none
attr recordingmode histogram
attr source "packetLength(merge(packetPushedIn, packetPulledIn))"
attr title "incoming packet lengths"
attr unit b
bin	-inf	0
bin	0	0
bin	1	0
scalar S2C.u2.DSTT.phyLayer.outboundEmitter flowIncomingPacketLengths:sum 0
attr interpolationmode none
attr recordingmode sum
attr source "packetLength(demuxFlow(merge(packetPushedIn, packetPulledIn)))"
attr title "flow specific incoming packet lengths, sum"
attr unit b
statistic S2C.u2.DSTT.phyLayer.outboundEmitter flowIncomingPacketLengths:histogram
field count 0
field mean -nan
field stddev nan
field min nan
field max nan
field sum 0
field sqrsum 0
attr interpolationmode none
attr recordingmode histogram
attr source "packetLength(demuxFlow(merge(packetPushedIn, packetPulledIn)))"
attr title "flow specific incoming packet lengths"
attr unit b
bin	-inf	0
bin	0	0
bin	1	0
par S2C.u2.DSTT.phyLayer.transmitter typename "\"inet.protocolelement.transceiver.PacketTransmitter\""
par S2C.u2.DSTT.phyLayer.transmitter displayStringTextFormat "\"processed %p pk (%l)\""
par S2C.u2.DSTT.phyLayer.transmitter clockModule "\"\""
par S2C.u2.DSTT.phyLayer.transmitter datarate this.bitrate
attr unit bps
scalar S2C.u2.DSTT.phyLayer.transmitter propagationTime 0
statistic S2C.u2.DSTT.phyLayer.transmitter utilization:histogram
field count 0
field mean -nan
field stddev nan
field min nan
field max nan
field sum 0
field sqrsum 0
attr interpolationmode linear
attr recordingmode histogram
attr source "100 * utilization(count(transmissionStarted) - count(transmissionEnded))"
attr title utilization
attr unit %
bin	-inf	0
bin	0	0
bin	1	0
statistic S2C.u2.DSTT.phyLayer.transmitter transmissionTime:histogram
field count 0
field mean -nan
field stddev nan
field min nan
field max nan
field sum 0
field sqrsum 0
attr interpolationmode none
attr recordingmode histogram
attr source packetDuration(transmissionEnded)
attr title "transmission time"
attr unit s
bin	-inf	0
bin	0	0
bin	1	0
statistic S2C.u2.DSTT.phyLayer.transmitter flowTransmissionTime:histogram
field count 0
field mean -nan
field stddev nan
field min nan
field max nan
field sum 0
field sqrsum 0
attr interpolationmode none
attr recordingmode histogram
attr source packetDuration(demuxFlow(transmissionEnded))
attr title "flow transmission time"
attr unit s
bin	-inf	0
bin	0	0
bin	1	0
par S2C.u2.DSTT.phyLayer.phyHeaderChecker typename "\"inet.physicallayer.wired.ethernet.EthernetPhyHeaderChecker\""
par S2C.u2.DSTT.phyLayer.phyHeaderChecker displayStringTextFormat "\"dropped %d/%p pk (%k/%l)\""
par S2C.u2.DSTT.phyLayer.phyHeaderChecker backpressure false
scalar S2C.u2.DSTT.phyLayer.phyHeaderChecker outgoingPackets:count 0
attr recordingmode count
attr source "merge(packetPushedOut, packetPulledOut)"
attr title "outgoing packets, count"
attr unit pk
scalar S2C.u2.DSTT.phyLayer.phyHeaderChecker outgoingPacketLengths:sum 0
attr interpolationmode none
attr recordingmode sum
attr source "packetLength(merge(packetPushedOut, packetPulledOut))"
attr title "outgoing packet lengths, sum"
attr unit b
statistic S2C.u2.DSTT.phyLayer.phyHeaderChecker outgoingPacketLengths:histogram
field count 0
field mean -nan
field stddev nan
field min nan
field max nan
field sum 0
field sqrsum 0
attr interpolationmode none
attr recordingmode histogram
attr source "packetLength(merge(packetPushedOut, packetPulledOut))"
attr title "outgoing packet lengths"
attr unit b
bin	-inf	0
bin	0	0
bin	1	0
scalar S2C.u2.DSTT.phyLayer.phyHeaderChecker flowOutgoingPacketLengths:sum 0
attr interpolationmode none
attr recordingmode sum
attr source "packetLength(demuxFlow(merge(packetPushedOut, packetPulledOut)))"
attr title "flow specific outgoing packet lengths, sum"
attr unit b
statistic S2C.u2.DSTT.phyLayer.phyHeaderChecker flowOutgoingPacketLengths:histogram
field count 0
field mean -nan
field stddev nan
field min nan
field max nan
field sum 0
field sqrsum 0
attr interpolationmode none
attr recordingmode histogram
attr source "packetLength(demuxFlow(merge(packetPushedOut, packetPulledOut)))"
attr title "flow specific outgoing packet lengths"
attr unit b
bin	-inf	0
bin	0	0
bin	1	0
scalar S2C.u2.DSTT.phyLayer.phyHeaderChecker incomingPackets:count 0
attr recordingmode count
attr source "merge(packetPushedIn, packetPulledIn)"
attr title "incoming packets, count"
attr unit pk
scalar S2C.u2.DSTT.phyLayer.phyHeaderChecker incomingPacketLengths:sum 0
attr interpolationmode none
attr recordingmode sum
attr source "packetLength(merge(packetPushedIn, packetPulledIn))"
attr title "incoming packet lengths, sum"
attr unit b
statistic S2C.u2.DSTT.phyLayer.phyHeaderChecker incomingPacketLengths:histogram
field count 0
field mean -nan
field stddev nan
field min nan
field max nan
field sum 0
field sqrsum 0
attr interpolationmode none
attr recordingmode histogram
attr source "packetLength(merge(packetPushedIn, packetPulledIn))"
attr title "incoming packet lengths"
attr unit b
bin	-inf	0
bin	0	0
bin	1	0
scalar S2C.u2.DSTT.phyLayer.phyHeaderChecker flowIncomingPacketLengths:sum 0
attr interpolationmode none
attr recordingmode sum
attr source "packetLength(demuxFlow(merge(packetPushedIn, packetPulledIn)))"
attr title "flow specific incoming packet lengths, sum"
attr unit b
statistic S2C.u2.DSTT.phyLayer.phyHeaderChecker flowIncomingPacketLengths:histogram
field count 0
field mean -nan
field stddev nan
field min nan
field max nan
field sum 0
field sqrsum 0
attr interpolationmode none
attr recordingmode histogram
attr source "packetLength(demuxFlow(merge(packetPushedIn, packetPulledIn)))"
attr title "flow specific incoming packet lengths"
attr unit b
bin	-inf	0
bin	0	0
bin	1	0
scalar S2C.u2.DSTT.phyLayer.phyHeaderChecker droppedPackets:count 0
attr recordingmode count
attr source packetDropped
attr title "dropped packets, count"
attr unit pk
scalar S2C.u2.DSTT.phyLayer.phyHeaderChecker droppedPacketLengths:sum 0
attr interpolationmode none
attr recordingmode sum
attr source packetLength(packetDropped)
attr title "dropped packet lengths, sum"
attr unit b
statistic S2C.u2.DSTT.phyLayer.phyHeaderChecker droppedPacketLengths:histogram
field count 0
field mean -nan
field stddev nan
field min nan
field max nan
field sum 0
field sqrsum 0
attr interpolationmode none
attr recordingmode histogram
attr source packetLength(packetDropped)
attr title "dropped packet lengths"
attr unit b
bin	-inf	0
bin	0	0
bin	1	0
scalar S2C.u2.DSTT.phyLayer.phyHeaderChecker flowDroppedPacketLengths:sum 0
attr interpolationmode none
attr recordingmode sum
attr source packetLength(demuxFlow(packetDropped))
attr title "flow specific dropped packet lengths, sum"
attr unit b
statistic S2C.u2.DSTT.phyLayer.phyHeaderChecker flowDroppedPacketLengths:histogram
field count 0
field mean -nan
field stddev nan
field min nan
field max nan
field sum 0
field sqrsum 0
attr interpolationmode none
attr recordingmode histogram
attr source packetLength(demuxFlow(packetDropped))
attr title "flow specific dropped packet lengths"
attr unit b
bin	-inf	0
bin	0	0
bin	1	0
par S2C.u2.DSTT.phyLayer.inboundEmitter typename "\"inet.protocolelement.common.PacketEmitter\""
par S2C.u2.DSTT.phyLayer.inboundEmitter displayStringTextFormat "\"processed %p pk (%l)\""
par S2C.u2.DSTT.phyLayer.inboundEmitter packetFilter "(omnetpp::cValueHolder)holder: \"*\""
par S2C.u2.DSTT.phyLayer.inboundEmitter direction "\"inbound\""
attr enum undefined,inbound,outbound
par S2C.u2.DSTT.phyLayer.inboundEmitter signalName "\"packetReceivedFromLower\""
scalar S2C.u2.DSTT.phyLayer.inboundEmitter outgoingPackets:count 0
attr recordingmode count
attr source "merge(packetPushedOut, packetPulledOut)"
attr title "outgoing packets, count"
attr unit pk
scalar S2C.u2.DSTT.phyLayer.inboundEmitter outgoingPacketLengths:sum 0
attr interpolationmode none
attr recordingmode sum
attr source "packetLength(merge(packetPushedOut, packetPulledOut))"
attr title "outgoing packet lengths, sum"
attr unit b
statistic S2C.u2.DSTT.phyLayer.inboundEmitter outgoingPacketLengths:histogram
field count 0
field mean -nan
field stddev nan
field min nan
field max nan
field sum 0
field sqrsum 0
attr interpolationmode none
attr recordingmode histogram
attr source "packetLength(merge(packetPushedOut, packetPulledOut))"
attr title "outgoing packet lengths"
attr unit b
bin	-inf	0
bin	0	0
bin	1	0
scalar S2C.u2.DSTT.phyLayer.inboundEmitter flowOutgoingPacketLengths:sum 0
attr interpolationmode none
attr recordingmode sum
attr source "packetLength(demuxFlow(merge(packetPushedOut, packetPulledOut)))"
attr title "flow specific outgoing packet lengths, sum"
attr unit b
statistic S2C.u2.DSTT.phyLayer.inboundEmitter flowOutgoingPacketLengths:histogram
field count 0
field mean -nan
field stddev nan
field min nan
field max nan
field sum 0
field sqrsum 0
attr interpolationmode none
attr recordingmode histogram
attr source "packetLength(demuxFlow(merge(packetPushedOut, packetPulledOut)))"
attr title "flow specific outgoing packet lengths"
attr unit b
bin	-inf	0
bin	0	0
bin	1	0
scalar S2C.u2.DSTT.phyLayer.inboundEmitter incomingPackets:count 0
attr recordingmode count
attr source "merge(packetPushedIn, packetPulledIn)"
attr title "incoming packets, count"
attr unit pk
scalar S2C.u2.DSTT.phyLayer.inboundEmitter incomingPacketLengths:sum 0
attr interpolationmode none
attr recordingmode sum
attr source "packetLength(merge(packetPushedIn, packetPulledIn))"
attr title "incoming packet lengths, sum"
attr unit b
statistic S2C.u2.DSTT.phyLayer.inboundEmitter incomingPacketLengths:histogram
field count 0
field mean -nan
field stddev nan
field min nan
field max nan
field sum 0
field sqrsum 0
attr interpolationmode none
attr recordingmode histogram
attr source "packetLength(merge(packetPushedIn, packetPulledIn))"
attr title "incoming packet lengths"
attr unit b
bin	-inf	0
bin	0	0
bin	1	0
scalar S2C.u2.DSTT.phyLayer.inboundEmitter flowIncomingPacketLengths:sum 0
attr interpolationmode none
attr recordingmode sum
attr source "packetLength(demuxFlow(merge(packetPushedIn, packetPulledIn)))"
attr title "flow specific incoming packet lengths, sum"
attr unit b
statistic S2C.u2.DSTT.phyLayer.inboundEmitter flowIncomingPacketLengths:histogram
field count 0
field mean -nan
field stddev nan
field min nan
field max nan
field sum 0
field sqrsum 0
attr interpolationmode none
attr recordingmode histogram
attr source "packetLength(demuxFlow(merge(packetPushedIn, packetPulledIn)))"
attr title "flow specific incoming packet lengths"
attr unit b
bin	-inf	0
bin	0	0
bin	1	0
par S2C.u2.DSTT.phyLayer.receiver typename "\"inet.protocolelement.transceiver.PacketReceiver\""
par S2C.u2.DSTT.phyLayer.receiver displayStringTextFormat "\"processed %p pk (%l)\""
par S2C.u2.DSTT.phyLayer.receiver datarate 1e+08bps
attr unit bps
statistic S2C.u2.DSTT.phyLayer.receiver receptionTime:histogram
field count 0
field mean -nan
field stddev nan
field min nan
field max nan
field sum 0
field sqrsum 0
attr interpolationmode none
attr recordingmode histogram
attr source packetDuration(receptionEnded)
attr title "reception time"
attr unit s
bin	-inf	0
bin	0	0
bin	1	0
statistic S2C.u2.DSTT.phyLayer.receiver flowReceptionTime:histogram
field count 0
field mean -nan
field stddev nan
field min nan
field max nan
field sum 0
field sqrsum 0
attr interpolationmode none
attr recordingmode histogram
attr source packetDuration(demuxFlow(receptionEnded))
attr title "flow reception time"
attr unit s
bin	-inf	0
bin	0	0
bin	1	0
par S2C.u2.DSTT.phyLayer typename "\"inet.physicallayer.wired.ethernet.EthernetPhyLayer\""
par S2C.u2.DSTT.phyLayer bitrate this.bitrate
attr unit bps
par S2C.u2.DSTT.DSTT typename "\"MyDSTT\""
par S2C.u2.DSTT.DSTT localPort 12340
attr mutable ""
par S2C.u2.DSTT.DSTT destPort 1000
attr mutable ""
par S2C.u2.DSTT.DSTT destAddress "\"Server\""
attr mutable ""
par S2C.u2.DSTT.DSTT tos -1
par S2C.u2.DSTT typename "\"DSTTInterface\""
par S2C.u2.DSTT displayStringTextFormat "\"%a (%i)\\n%m\""
par S2C.u2.DSTT recordPcap false
par S2C.u2.DSTT numPcapRecorders 0
par S2C.u2.DSTT protocol "\"ethernetmac\""
par S2C.u2.DSTT broadcast true
par S2C.u2.DSTT multicast true
par S2C.u2.DSTT address "\"0A-AA-00-00-00-0B\""
attr mutable ""
par S2C.u2.DSTT bitrate 1e+08bps
attr unit bps
par S2C.u2.DSTT mtu 1500B
attr unit B
par S2C.u2.DSTT interfaceTableModule "\"S2C.u2.interfaceTable\""
scalar S2C.u2.DSTT packetDropInterfaceDown:count 0
attr interpolationmode none
attr recordingmode count
attr source packetDropReasonIsInterfaceDown(packetDropped)
attr title "packet drops: interface down, count"
scalar S2C.u2.DSTT packetDropInterfaceDown:sum(packetBytes) 0
attr interpolationmode none
attr recordingmode sum(packetBytes)
attr source packetDropReasonIsInterfaceDown(packetDropped)
attr title "packet drops: interface down, sum(packetBytes)"
scalar S2C.u2.DSTT packetDropNoCarrier:count 0
attr interpolationmode none
attr recordingmode count
attr source packetDropReasonIsNoCarrier(packetDropped)
attr title "packet drops: no carrier, count"
scalar S2C.u2.DSTT packetDropNoCarrier:sum(packetBytes) 0
attr interpolationmode none
attr recordingmode sum(packetBytes)
attr source packetDropReasonIsNoCarrier(packetDropped)
attr title "packet drops: no carrier, sum(packetBytes)"
par S2C.u2 typename "\"TsnUe\""
par S2C.u2 numApps 0
par S2C.u2 hasUdp true
par S2C.u2 hasTcp true
par S2C.u2 hasSctp false
par S2C.u2 nodeType "\"UE\""
par S2C.u2 masterId 1
attr mutable ""
par S2C.u2 macNodeId 1026
attr mutable ""
par S2C.u2 macCellId 1
attr mutable ""
par S2C.u2 nicType "\"NRNicUe\""
par S2C.u2 hasIpv4 true
par S2C.u2 hasIpv6 false
par S2C.u2 numEthInterfaces 0
par S2C.u2 extHostAddress "\"\""
par S2C.u2 numLoInterfaces 1
par S2C.u2 numPcapRecorders 0
par S2C.u2 hasRNISupport false
par S2C.u2 nrMasterId 1
attr mutable ""
par S2C.u2 nrMacNodeId 2050
attr mutable ""
par S2C.u2 nrMacCellId 1
attr mutable ""
par S2C typename "\"d2d.S2C\""
par S2C recordPcap false
par S2C numPcapRecorders 0
par S2C hasGlobalArp true

