version 3
run S2C-0-20241008-11:16:54-4579
attr configname S2C
attr datetime 20241008-11:16:54
attr datetimef 20241008-111654
attr experiment S2C
attr inifile omnetpp.ini
attr iterationvars ""
attr iterationvarsd ""
attr iterationvarsf ""
attr measurement ""
attr network S2C
attr processid 4579
attr repetition 0
attr replication #0
attr resultdir results
attr runnumber 0
attr seedset 0
config image-path ../../../Downloads/TSN5G-master/inet4.5/images:../../simu5G/images
config network S2C
config *.*.macCellId 1
config *.*.masterId 1
config *.*.nrMacCellId 1
config *.*.nrMasterId 1
config *.u*.DSTT.DSTT.destAddress "\"Server\""
config *.Client1.numApps 1
config *.Client1.app[*].typename UdpSourceApp
config *.Client1.app[*].io.destAddress "\"Server\""
config *.Client1.app[*].io.localPort 1000+ancestorIndex(1)
config *.Client1.app[0].display-name TCU
config *.Client1.app[0].io.destPort 1001
config *.Client1.app[0].source.packetLength 77B
config *.Client1.app[0].source.productionInterval 10ms
config *.Server*.numApps 2
config *.Server.app[*].typename UdpSinkApp
config *.Server.app[0].display-name besteffort
config *.Server.app[1].display-name video
config *.Server.app[*].io.localPort 1000+ancestorIndex(1)
config *.*.hasOutgoingStreams true
config *.*.hasIncomingStreams true
config *.Client*.bridging.streamIdentifier.identifier.mapping "[{stream: \"besteffort\", packetFilter: expr(udp.destPort == 1000)},\n\t\t\t\t\t\t\t\t\t\t\t\t\t\t\t{stream: \"video\", packetFilter: expr(udp.destPort == 1001)}]"
config *.Client*.bridging.streamCoder.encoder.mapping "[{stream: \"besteffort\", pcp: 0},\n\t\t\t\t\t\t\t\t\t\t\t\t\t{stream: \"video\", pcp: 4}]"
config *.Server.bridging.streamIdentifier.identifier.mapping "[{stream: \"besteffort\", packetFilter: expr(udp.destPort == 1000)},\n\t\t\t\t\t\t\t\t\t\t\t\t\t\t\t{stream: \"video\", packetFilter: expr(udp.destPort == 1001)}]"
config *.Server.bridging.streamCoder.encoder.mapping "[{stream: \"besteffort\", pcp: 0},\n\t\t\t\t\t\t\t\t\t\t\t\t\t{stream: \"video\", pcp: 4}]"
config *.tsnSwitch.bridging.streamCoder.decoder.mapping "[{pcp: 0, stream: \"besteffort\"},\n                                                 {pcp: 4, stream: \"video\"}]"
config *.tsnSwitch.bridging.streamCoder.encoder.mapping "[{stream: \"besteffort\", pcp: 0},\n\t\t\t\t\t\t\t\t\t\t\t\t\t{stream: \"video\", pcp: 4}]"
config *.tsnSwitch.hasIngressTrafficFiltering true
config *.tsnSwitch.bridging.streamFilter.ingress.typename SimpleIeee8021qFilter
config *.tsnSwitch.bridging.streamFilter.ingress.numStreams 2
config *.tsnSwitch.bridging.streamFilter.ingress.classifier.mapping "{besteffort: 0,video: 1}"
config *.tsnSwitch.bridging.streamFilter.ingress.*[0].display-name besteffort
config *.tsnSwitch.bridging.streamFilter.ingress.*[1].display-name video
config *.tsnSwitch.bridging.streamFilter.ingress.meter[*].typename EligibilityTimeMeter
config *.tsnSwitch.bridging.streamFilter.ingress.meter[*].committedInformationRate 1Mbps
config *.tsnSwitch.bridging.streamFilter.ingress.meter[*].committedBurstSize 1kB
config *.tsnSwitch.bridging.streamFilter.ingress.filter[*].typename EligibilityTimeFilter
config *.tsnSwitch.hasEgressTrafficShaping true
config *.tsnSwitch.bridging.directionReverser.reverser.excludeEncapsulationProtocols "[\"ieee8021qctag\"]"
config *.tsnSwitch.eth[*].macLayer.queue.numTrafficClasses 2
config *.tsnSwitch.eth[*].macLayer.queue.*[0].display-name besteffort
config *.tsnSwitch.eth[*].macLayer.queue.*[1].display-name video
config *.tsnSwitch.eth[*].macLayer.queue.queue[0].typename EligibilityTimeQueue
config *.tsnSwitch.eth[*].macLayer.queue.queue[1].typename EligibilityTimeQueue
config *.tsnSwitch.eth[*].macLayer.queue.transmissionSelectionAlgorithm[0].typename Ieee8021qAsynchronousShaper
config *.tsnSwitch.eth[*].macLayer.queue.transmissionSelectionAlgorithm[1].typename Ieee8021qAsynchronousShaper

vector 0 S2C.Server.eth[0].phyLayer.interFrameGapInserter interpacketGap:vector ETV
attr interpolationmode sample-hold
attr recordingmode vector
attr source "count(interpacketGapStarted) - count(interpacketGapEnded)"
attr title "interpacket gap state"
attr type int
vector 1 S2C.Server.eth[0].phyLayer.transmitter transmitting:vector ETV
attr interpolationmode sample-hold
attr recordingmode vector
attr source "count(transmissionStarted) - count(transmissionEnded)"
attr title "transmitting state"
attr type int
vector 2 S2C.Server.udp passedUpPk:vector(count) ETV
attr interpolationmode none
attr recordingmode vector(count)
attr source packetSentToUpper
attr title "packets passed up, count"
vector 3 S2C.Server.udp droppedPkWrongPort:vector(count) ETV
attr interpolationmode none
attr recordingmode vector(count)
attr source packetDropReasonIsNoPortFound(packetDropped)
attr title "packets dropped (wrong port), count"
vector 4 S2C.Server.udp droppedPkBadChecksum:vector(count) ETV
attr interpolationmode none
attr recordingmode vector(count)
attr source packetDropReasonIsIncorrectlyReceived(packetDropped)
attr title "packets dropped (checksum error), count"
vector 5 S2C.tsnSwitch.eth[0].phyLayer.interFrameGapInserter interpacketGap:vector ETV
attr interpolationmode sample-hold
attr recordingmode vector
attr source "count(interpacketGapStarted) - count(interpacketGapEnded)"
attr title "interpacket gap state"
attr type int
vector 6 S2C.tsnSwitch.eth[0].phyLayer.transmitter transmitting:vector ETV
attr interpolationmode sample-hold
attr recordingmode vector
attr source "count(transmissionStarted) - count(transmissionEnded)"
attr title "transmitting state"
attr type int
vector 7 S2C.tsnSwitch.eth[1].phyLayer.interFrameGapInserter interpacketGap:vector ETV
attr interpolationmode sample-hold
attr recordingmode vector
attr source "count(interpacketGapStarted) - count(interpacketGapEnded)"
attr title "interpacket gap state"
attr type int
vector 8 S2C.tsnSwitch.eth[1].phyLayer.transmitter transmitting:vector ETV
attr interpolationmode sample-hold
attr recordingmode vector
attr source "count(transmissionStarted) - count(transmissionEnded)"
attr title "transmitting state"
attr type int
vector 9 S2C.upf.ppp[0].ppp transmissionState:vector ETV
attr interpolationmode sample-hold
attr recordingmode vector
attr source transmissionStateChanged
attr title "tx state"
vector 10 S2C.upf.udp passedUpPk:vector(count) ETV
attr interpolationmode none
attr recordingmode vector(count)
attr source packetSentToUpper
attr title "packets passed up, count"
vector 11 S2C.upf.udp droppedPkWrongPort:vector(count) ETV
attr interpolationmode none
attr recordingmode vector(count)
attr source packetDropReasonIsNoPortFound(packetDropped)
attr title "packets dropped (wrong port), count"
vector 12 S2C.upf.udp droppedPkBadChecksum:vector(count) ETV
attr interpolationmode none
attr recordingmode vector(count)
attr source packetDropReasonIsIncorrectlyReceived(packetDropped)
attr title "packets dropped (checksum error), count"
vector 13 S2C.upf.NWTT.phyLayer.interFrameGapInserter interpacketGap:vector ETV
attr interpolationmode sample-hold
attr recordingmode vector
attr source "count(interpacketGapStarted) - count(interpacketGapEnded)"
attr title "interpacket gap state"
attr type int
vector 14 S2C.upf.NWTT.phyLayer.transmitter transmitting:vector ETV
attr interpolationmode sample-hold
attr recordingmode vector
attr source "count(transmissionStarted) - count(transmissionEnded)"
attr title "transmitting state"
attr type int
vector 15 S2C.gnb.pppIf.ppp transmissionState:vector ETV
attr interpolationmode sample-hold
attr recordingmode vector
attr source transmissionStateChanged
attr title "tx state"
vector 16 S2C.gnb.pppMEHostIf.ppp transmissionState:vector ETV
attr interpolationmode sample-hold
attr recordingmode vector
attr source transmissionStateChanged
attr title "tx state"
vector 17 S2C.gnb.udp passedUpPk:vector(count) ETV
attr interpolationmode none
attr recordingmode vector(count)
attr source packetSentToUpper
attr title "packets passed up, count"
vector 18 S2C.gnb.udp droppedPkWrongPort:vector(count) ETV
attr interpolationmode none
attr recordingmode vector(count)
attr source packetDropReasonIsNoPortFound(packetDropped)
attr title "packets dropped (wrong port), count"
vector 19 S2C.gnb.udp droppedPkBadChecksum:vector(count) ETV
attr interpolationmode none
attr recordingmode vector(count)
attr source packetDropReasonIsIncorrectlyReceived(packetDropped)
attr title "packets dropped (checksum error), count"
vector 20 S2C.Client1.eth[0].phyLayer.interFrameGapInserter interpacketGap:vector ETV
attr interpolationmode sample-hold
attr recordingmode vector
attr source "count(interpacketGapStarted) - count(interpacketGapEnded)"
attr title "interpacket gap state"
attr type int
vector 21 S2C.Client1.eth[0].phyLayer.transmitter transmitting:vector ETV
attr interpolationmode sample-hold
attr recordingmode vector
attr source "count(transmissionStarted) - count(transmissionEnded)"
attr title "transmitting state"
attr type int
vector 22 S2C.Client1.udp passedUpPk:vector(count) ETV
attr interpolationmode none
attr recordingmode vector(count)
attr source packetSentToUpper
attr title "packets passed up, count"
vector 23 S2C.Client1.udp droppedPkWrongPort:vector(count) ETV
attr interpolationmode none
attr recordingmode vector(count)
attr source packetDropReasonIsNoPortFound(packetDropped)
attr title "packets dropped (wrong port), count"
vector 24 S2C.Client1.udp droppedPkBadChecksum:vector(count) ETV
attr interpolationmode none
attr recordingmode vector(count)
attr source packetDropReasonIsIncorrectlyReceived(packetDropped)
attr title "packets dropped (checksum error), count"
vector 25 S2C.u1.udp passedUpPk:vector(count) ETV
attr interpolationmode none
attr recordingmode vector(count)
attr source packetSentToUpper
attr title "packets passed up, count"
vector 26 S2C.u1.udp droppedPkWrongPort:vector(count) ETV
attr interpolationmode none
attr recordingmode vector(count)
attr source packetDropReasonIsNoPortFound(packetDropped)
attr title "packets dropped (wrong port), count"
vector 27 S2C.u1.udp droppedPkBadChecksum:vector(count) ETV
attr interpolationmode none
attr recordingmode vector(count)
attr source packetDropReasonIsIncorrectlyReceived(packetDropped)
attr title "packets dropped (checksum error), count"
vector 28 S2C.u1.DSTT.phyLayer.interFrameGapInserter interpacketGap:vector ETV
attr interpolationmode sample-hold
attr recordingmode vector
attr source "count(interpacketGapStarted) - count(interpacketGapEnded)"
attr title "interpacket gap state"
attr type int
vector 29 S2C.u1.DSTT.phyLayer.transmitter transmitting:vector ETV
attr interpolationmode sample-hold
attr recordingmode vector
attr source "count(transmissionStarted) - count(transmissionEnded)"
attr title "transmitting state"
attr type int
vector 30 S2C.Client2.eth[0].phyLayer.interFrameGapInserter interpacketGap:vector ETV
attr interpolationmode sample-hold
attr recordingmode vector
attr source "count(interpacketGapStarted) - count(interpacketGapEnded)"
attr title "interpacket gap state"
attr type int
vector 31 S2C.Client2.eth[0].phyLayer.transmitter transmitting:vector ETV
attr interpolationmode sample-hold
attr recordingmode vector
attr source "count(transmissionStarted) - count(transmissionEnded)"
attr title "transmitting state"
attr type int
vector 32 S2C.Client2.udp passedUpPk:vector(count) ETV
attr interpolationmode none
attr recordingmode vector(count)
attr source packetSentToUpper
attr title "packets passed up, count"
vector 33 S2C.Client2.udp droppedPkWrongPort:vector(count) ETV
attr interpolationmode none
attr recordingmode vector(count)
attr source packetDropReasonIsNoPortFound(packetDropped)
attr title "packets dropped (wrong port), count"
vector 34 S2C.Client2.udp droppedPkBadChecksum:vector(count) ETV
attr interpolationmode none
attr recordingmode vector(count)
attr source packetDropReasonIsIncorrectlyReceived(packetDropped)
attr title "packets dropped (checksum error), count"
vector 35 S2C.u2.udp passedUpPk:vector(count) ETV
attr interpolationmode none
attr recordingmode vector(count)
attr source packetSentToUpper
attr title "packets passed up, count"
vector 36 S2C.u2.udp droppedPkWrongPort:vector(count) ETV
attr interpolationmode none
attr recordingmode vector(count)
attr source packetDropReasonIsNoPortFound(packetDropped)
attr title "packets dropped (wrong port), count"
vector 37 S2C.u2.udp droppedPkBadChecksum:vector(count) ETV
attr interpolationmode none
attr recordingmode vector(count)
attr source packetDropReasonIsIncorrectlyReceived(packetDropped)
attr title "packets dropped (checksum error), count"
vector 38 S2C.u2.DSTT.phyLayer.interFrameGapInserter interpacketGap:vector ETV
attr interpolationmode sample-hold
attr recordingmode vector
attr source "count(interpacketGapStarted) - count(interpacketGapEnded)"
attr title "interpacket gap state"
attr type int
vector 39 S2C.u2.DSTT.phyLayer.transmitter transmitting:vector ETV
attr interpolationmode sample-hold
attr recordingmode vector
attr source "count(transmissionStarted) - count(transmissionEnded)"
attr title "transmitting state"
attr type int
vector 40 S2C.u1.cellularNic.phy servingCell:vector ETV
attr recordingmode vector
attr source servingCell
attr title "ID of the serving eNodeB for the UE"
attr unit ""
vector 41 S2C.u1.cellularNic.nrPhy servingCell:vector ETV
attr recordingmode vector
attr source servingCell
attr title "ID of the serving eNodeB for the UE"
attr unit ""
vector 42 S2C.u2.cellularNic.phy servingCell:vector ETV
attr recordingmode vector
attr source servingCell
attr title "ID of the serving eNodeB for the UE"
attr unit ""
vector 43 S2C.u2.cellularNic.nrPhy servingCell:vector ETV
attr recordingmode vector
attr source servingCell
attr title "ID of the serving eNodeB for the UE"
attr unit ""
vector 44 S2C.tsnSwitch.bridging.streamFilter.ingress.meter[0] numTokens:vector ETV
attr interpolationmode linear
attr moduledisplaypath S2C.tsnSwitch.bridging.streamFilter.ingress.besteffort
attr recordingmode vector
attr source tokensChanged
attr title "number of tokens"
attr unit tk
vector 45 S2C.tsnSwitch.bridging.streamFilter.ingress.meter[1] numTokens:vector ETV
attr interpolationmode linear
attr moduledisplaypath S2C.tsnSwitch.bridging.streamFilter.ingress.video
attr recordingmode vector
attr source tokensChanged
attr title "number of tokens"
attr unit tk
vector 46 S2C.tsnSwitch.eth[0].macLayer.queue.transmissionSelectionAlgorithm[0] gateState:vector ETV
attr enum CLOSED,OPEN
attr interpolationmode sample-hold
attr moduledisplaypath S2C.tsnSwitch.eth[0].macLayer.queue.besteffort
attr recordingmode vector
attr source gateStateChanged
attr title "gate state"
attr type enum
vector 47 S2C.tsnSwitch.eth[0].macLayer.queue.transmissionSelectionAlgorithm[0] remainingEligibilityTime:vector ETV
attr interpolationmode linear
attr moduledisplaypath S2C.tsnSwitch.eth[0].macLayer.queue.besteffort
attr recordingmode vector
attr source remainingEligibilityTimeChanged
attr title "remaining eligibility time"
attr unit s
vector 48 S2C.tsnSwitch.eth[0].macLayer.queue.transmissionSelectionAlgorithm[1] gateState:vector ETV
attr enum CLOSED,OPEN
attr interpolationmode sample-hold
attr moduledisplaypath S2C.tsnSwitch.eth[0].macLayer.queue.video
attr recordingmode vector
attr source gateStateChanged
attr title "gate state"
attr type enum
vector 49 S2C.tsnSwitch.eth[0].macLayer.queue.transmissionSelectionAlgorithm[1] remainingEligibilityTime:vector ETV
attr interpolationmode linear
attr moduledisplaypath S2C.tsnSwitch.eth[0].macLayer.queue.video
attr recordingmode vector
attr source remainingEligibilityTimeChanged
attr title "remaining eligibility time"
attr unit s
vector 50 S2C.tsnSwitch.eth[1].macLayer.queue.transmissionSelectionAlgorithm[0] gateState:vector ETV
attr enum CLOSED,OPEN
attr interpolationmode sample-hold
attr moduledisplaypath S2C.tsnSwitch.eth[1].macLayer.queue.besteffort
attr recordingmode vector
attr source gateStateChanged
attr title "gate state"
attr type enum
vector 51 S2C.tsnSwitch.eth[1].macLayer.queue.transmissionSelectionAlgorithm[0] remainingEligibilityTime:vector ETV
attr interpolationmode linear
attr moduledisplaypath S2C.tsnSwitch.eth[1].macLayer.queue.besteffort
attr recordingmode vector
attr source remainingEligibilityTimeChanged
attr title "remaining eligibility time"
attr unit s
vector 52 S2C.tsnSwitch.eth[1].macLayer.queue.transmissionSelectionAlgorithm[1] gateState:vector ETV
attr enum CLOSED,OPEN
attr interpolationmode sample-hold
attr moduledisplaypath S2C.tsnSwitch.eth[1].macLayer.queue.video
attr recordingmode vector
attr source gateStateChanged
attr title "gate state"
attr type enum
vector 53 S2C.tsnSwitch.eth[1].macLayer.queue.transmissionSelectionAlgorithm[1] remainingEligibilityTime:vector ETV
attr interpolationmode linear
attr moduledisplaypath S2C.tsnSwitch.eth[1].macLayer.queue.video
attr recordingmode vector
attr source remainingEligibilityTimeChanged
attr title "remaining eligibility time"
attr unit s
vector 54 S2C.Client1.app[0].source packetLengths:vector ETV
attr interpolationmode none
attr moduledisplaypath S2C.Client1.TCU.source
attr recordingmode vector
attr source packetLength(packetPushed)
attr title "packet lengths"
attr unit b
vector 55 S2C.tsnSwitch.bridging.streamFilter.ingress.gate[0] gateState:vector ETV
attr enum CLOSED,OPEN
attr interpolationmode sample-hold
attr moduledisplaypath S2C.tsnSwitch.bridging.streamFilter.ingress.besteffort
attr recordingmode vector
attr source gateStateChanged
attr title "gate state"
attr type enum
vector 56 S2C.tsnSwitch.bridging.streamFilter.ingress.gate[1] gateState:vector ETV
attr enum CLOSED,OPEN
attr interpolationmode sample-hold
attr moduledisplaypath S2C.tsnSwitch.bridging.streamFilter.ingress.video
attr recordingmode vector
attr source gateStateChanged
attr title "gate state"
attr type enum
vector 57 S2C.tsnSwitch.eth[0].macLayer.queue.transmissionGate[0] gateState:vector ETV
attr enum CLOSED,OPEN
attr interpolationmode sample-hold
attr moduledisplaypath S2C.tsnSwitch.eth[0].macLayer.queue.besteffort
attr recordingmode vector
attr source gateStateChanged
attr title "gate state"
attr type enum
vector 58 S2C.tsnSwitch.eth[0].macLayer.queue.transmissionGate[0] guardBandState:vector ETV
attr enum ON,OFF
attr interpolationmode sample-hold
attr moduledisplaypath S2C.tsnSwitch.eth[0].macLayer.queue.besteffort
attr recordingmode vector
attr source guardBandStateChanged
attr title "guard band state"
attr type enum
vector 59 S2C.tsnSwitch.eth[0].macLayer.queue.transmissionGate[1] gateState:vector ETV
attr enum CLOSED,OPEN
attr interpolationmode sample-hold
attr moduledisplaypath S2C.tsnSwitch.eth[0].macLayer.queue.video
attr recordingmode vector
attr source gateStateChanged
attr title "gate state"
attr type enum
vector 60 S2C.tsnSwitch.eth[0].macLayer.queue.transmissionGate[1] guardBandState:vector ETV
attr enum ON,OFF
attr interpolationmode sample-hold
attr moduledisplaypath S2C.tsnSwitch.eth[0].macLayer.queue.video
attr recordingmode vector
attr source guardBandStateChanged
attr title "guard band state"
attr type enum
vector 61 S2C.tsnSwitch.eth[1].macLayer.queue.transmissionGate[0] gateState:vector ETV
attr enum CLOSED,OPEN
attr interpolationmode sample-hold
attr moduledisplaypath S2C.tsnSwitch.eth[1].macLayer.queue.besteffort
attr recordingmode vector
attr source gateStateChanged
attr title "gate state"
attr type enum
vector 62 S2C.tsnSwitch.eth[1].macLayer.queue.transmissionGate[0] guardBandState:vector ETV
attr enum ON,OFF
attr interpolationmode sample-hold
attr moduledisplaypath S2C.tsnSwitch.eth[1].macLayer.queue.besteffort
attr recordingmode vector
attr source guardBandStateChanged
attr title "guard band state"
attr type enum
vector 63 S2C.tsnSwitch.eth[1].macLayer.queue.transmissionGate[1] gateState:vector ETV
attr enum CLOSED,OPEN
attr interpolationmode sample-hold
attr moduledisplaypath S2C.tsnSwitch.eth[1].macLayer.queue.video
attr recordingmode vector
attr source gateStateChanged
attr title "gate state"
attr type enum
vector 64 S2C.tsnSwitch.eth[1].macLayer.queue.transmissionGate[1] guardBandState:vector ETV
attr enum ON,OFF
attr interpolationmode sample-hold
attr moduledisplaypath S2C.tsnSwitch.eth[1].macLayer.queue.video
attr recordingmode vector
attr source guardBandStateChanged
attr title "guard band state"
attr type enum
vector 65 S2C.Client1.app[0].io packetSent:vector(packetBytes) ETV
attr interpolationmode none
attr moduledisplaypath S2C.Client1.TCU.io
attr recordingmode vector(packetBytes)
attr source packetSent
attr title "packets sent, packetBytes"
vector 66 S2C.Client1.udp packetSent:vector(packetBytes) ETV
attr interpolationmode none
attr recordingmode vector(packetBytes)
attr source packetSent
attr title "packets sent, packetBytes"
vector 67 S2C.Client1.bridging.streamIdentifier.identifier incomingPacketLengths:vector ETV
attr interpolationmode none
attr recordingmode vector
attr source "packetLength(merge(packetPushedIn, packetPulledIn))"
attr title "incoming packet lengths"
attr unit b
vector 68 S2C.Client1.bridging.streamIdentifier.identifier outgoingPacketLengths:vector ETV
attr interpolationmode none
attr recordingmode vector
attr source "packetLength(merge(packetPushedOut, packetPulledOut))"
attr title "outgoing packet lengths"
attr unit b
vector 69 S2C.Client1.bridging.streamCoder.encoder incomingPacketLengths:vector ETV
attr interpolationmode none
attr recordingmode vector
attr source "packetLength(merge(packetPushedIn, packetPulledIn))"
attr title "incoming packet lengths"
attr unit b
vector 70 S2C.Client1.bridging.streamCoder.encoder outgoingPacketLengths:vector ETV
attr interpolationmode none
attr recordingmode vector
attr source "packetLength(merge(packetPushedOut, packetPulledOut))"
attr title "outgoing packet lengths"
attr unit b
vector 71 S2C.Client1.ieee8021q.qTagHeaderInserter incomingPacketLengths:vector ETV
attr interpolationmode none
attr recordingmode vector
attr source "packetLength(merge(packetPushedIn, packetPulledIn))"
attr title "incoming packet lengths"
attr unit b
vector 72 S2C.Client1.ieee8021q.qTagHeaderInserter outgoingPacketLengths:vector ETV
attr interpolationmode none
attr recordingmode vector
attr source "packetLength(merge(packetPushedOut, packetPulledOut))"
attr title "outgoing packet lengths"
attr unit b
vector 73 S2C.Client1.ethernet.macHeaderInserter incomingPacketLengths:vector ETV
attr interpolationmode none
attr recordingmode vector
attr source "packetLength(merge(packetPushedIn, packetPulledIn))"
attr title "incoming packet lengths"
attr unit b
vector 74 S2C.Client1.ethernet.macHeaderInserter outgoingPacketLengths:vector ETV
attr interpolationmode none
attr recordingmode vector
attr source "packetLength(merge(packetPushedOut, packetPulledOut))"
attr title "outgoing packet lengths"
attr unit b
vector 75 S2C.Client1.ethernet.paddingInserter incomingPacketLengths:vector ETV
attr interpolationmode none
attr recordingmode vector
attr source "packetLength(merge(packetPushedIn, packetPulledIn))"
attr title "incoming packet lengths"
attr unit b
vector 76 S2C.Client1.ethernet.paddingInserter outgoingPacketLengths:vector ETV
attr interpolationmode none
attr recordingmode vector
attr source "packetLength(merge(packetPushedOut, packetPulledOut))"
attr title "outgoing packet lengths"
attr unit b
vector 77 S2C.Client1.ethernet.fcsInserter incomingPacketLengths:vector ETV
attr interpolationmode none
attr recordingmode vector
attr source "packetLength(merge(packetPushedIn, packetPulledIn))"
attr title "incoming packet lengths"
attr unit b
vector 78 S2C.Client1.ethernet.fcsInserter outgoingPacketLengths:vector ETV
attr interpolationmode none
attr recordingmode vector
attr source "packetLength(merge(packetPushedOut, packetPulledOut))"
attr title "outgoing packet lengths"
attr unit b
vector 79 S2C.Client1.eth[0].macLayer.queue incomingPacketLengths:vector ETV
attr interpolationmode none
attr recordingmode vector
attr source packetLength(packetPushStarted)
attr title "incoming packet lengths"
attr unit b
vector 80 S2C.Client1.eth[0].macLayer.queue queueLength:vector ETV
attr autoWarmupFilter false
attr interpolationmode sample-hold
attr recordingmode vector
attr source "warmup(atomic(constant0(packetPushEnded) + count(packetPushStarted) - count(packetPulled) - count(packetRemoved) - count(packetDropped)))"
attr title "queue length"
attr unit pk
vector 81 S2C.Client1.eth[0].macLayer.queue queueBitLength:vector ETV
attr autoWarmupFilter false
attr interpolationmode sample-hold
attr recordingmode vector
attr source "warmup(atomic(constant0(packetPushEnded) + sum(packetLength(packetPushStarted)) - sum(packetLength(packetPulled)) - sum(packetLength(packetRemoved)) - sum(packetLength(packetDropped))))"
attr title "queue bit length"
attr unit b
vector 82 S2C.Client1.eth[0].macLayer.queue queueingTime:vector ETV
attr interpolationmode none
attr recordingmode vector
attr source queueingTime(packetPulled)
attr title "queueing times"
attr unit s
vector 83 S2C.Client1.eth[0].macLayer.queue outgoingPacketLengths:vector ETV
attr interpolationmode none
attr recordingmode vector
attr source packetLength(packetPulled)
attr title "outgoing packet lengths"
attr unit b
vector 84 S2C.Client1.eth[0].macLayer.server incomingPacketLengths:vector ETV
attr interpolationmode none
attr recordingmode vector
attr source packetLength(packetPulled)
attr title "incoming packet lengths"
attr unit b
vector 85 S2C.Client1.eth[0].macLayer.server outgoingPacketLengths:vector ETV
attr interpolationmode none
attr recordingmode vector
attr source packetLength(packetPushed)
attr title "outgoing packet lengths"
attr unit b
vector 86 S2C.Client1.eth[0].macLayer.outboundEmitter incomingPacketLengths:vector ETV
attr interpolationmode none
attr recordingmode vector
attr source "packetLength(merge(packetPushedIn, packetPulledIn))"
attr title "incoming packet lengths"
attr unit b
vector 87 S2C.Client1.eth[0].macLayer.outboundEmitter outgoingPacketLengths:vector ETV
attr interpolationmode none
attr recordingmode vector
attr source "packetLength(merge(packetPushedOut, packetPulledOut))"
attr title "outgoing packet lengths"
attr unit b
vector 88 S2C.Client1.eth[0].phyLayer.phyHeaderInserter incomingPacketLengths:vector ETV
attr interpolationmode none
attr recordingmode vector
attr source "packetLength(merge(packetPushedIn, packetPulledIn))"
attr title "incoming packet lengths"
attr unit b
vector 89 S2C.Client1.eth[0].phyLayer.phyHeaderInserter outgoingPacketLengths:vector ETV
attr interpolationmode none
attr recordingmode vector
attr source "packetLength(merge(packetPushedOut, packetPulledOut))"
attr title "outgoing packet lengths"
attr unit b
vector 90 S2C.Client1.eth[0].phyLayer.outboundEmitter incomingPacketLengths:vector ETV
attr interpolationmode none
attr recordingmode vector
attr source "packetLength(merge(packetPushedIn, packetPulledIn))"
attr title "incoming packet lengths"
attr unit b
vector 91 S2C.Client1.eth[0].phyLayer.outboundEmitter outgoingPacketLengths:vector ETV
attr interpolationmode none
attr recordingmode vector
attr source "packetLength(merge(packetPushedOut, packetPulledOut))"
attr title "outgoing packet lengths"
attr unit b
vector 92 S2C.u1.DSTT.phyLayer.receiver receptionTime:vector ETV
attr interpolationmode none
attr recordingmode vector
attr source packetDuration(receptionEnded)
attr title "reception time"
attr unit s
vector 93 S2C.u1.DSTT.phyLayer.inboundEmitter incomingPacketLengths:vector ETV
attr interpolationmode none
attr recordingmode vector
attr source "packetLength(merge(packetPushedIn, packetPulledIn))"
attr title "incoming packet lengths"
attr unit b
vector 94 S2C.u1.DSTT.phyLayer.inboundEmitter outgoingPacketLengths:vector ETV
attr interpolationmode none
attr recordingmode vector
attr source "packetLength(merge(packetPushedOut, packetPulledOut))"
attr title "outgoing packet lengths"
attr unit b
vector 95 S2C.u1.DSTT.phyLayer.phyHeaderChecker incomingPacketLengths:vector ETV
attr interpolationmode none
attr recordingmode vector
attr source "packetLength(merge(packetPushedIn, packetPulledIn))"
attr title "incoming packet lengths"
attr unit b
vector 96 S2C.u1.DSTT.phyLayer.phyHeaderChecker outgoingPacketLengths:vector ETV
attr interpolationmode none
attr recordingmode vector
attr source "packetLength(merge(packetPushedOut, packetPulledOut))"
attr title "outgoing packet lengths"
attr unit b
vector 97 S2C.u1.DSTT.macLayer.inboundEmitter incomingPacketLengths:vector ETV
attr interpolationmode none
attr recordingmode vector
attr source "packetLength(merge(packetPushedIn, packetPulledIn))"
attr title "incoming packet lengths"
attr unit b
vector 98 S2C.u1.DSTT.macLayer.inboundEmitter outgoingPacketLengths:vector ETV
attr interpolationmode none
attr recordingmode vector
attr source "packetLength(merge(packetPushedOut, packetPulledOut))"
attr title "outgoing packet lengths"
attr unit b
vector 99 S2C.u1.DSTT.macLayer.fcsChecker incomingPacketLengths:vector ETV
attr interpolationmode none
attr recordingmode vector
attr source "packetLength(merge(packetPushedIn, packetPulledIn))"
attr title "incoming packet lengths"
attr unit b
vector 100 S2C.u1.DSTT.macLayer.fcsChecker outgoingPacketLengths:vector ETV
attr interpolationmode none
attr recordingmode vector
attr source "packetLength(merge(packetPushedOut, packetPulledOut))"
attr title "outgoing packet lengths"
attr unit b
vector 101 S2C.Client1.eth[0].phyLayer.transmitter transmissionTime:vector ETV
attr interpolationmode none
attr recordingmode vector
attr source packetDuration(transmissionEnded)
attr title "transmission time"
attr unit s
vector 102 S2C.u1.udp packetSent:vector(packetBytes) ETV
attr interpolationmode none
attr recordingmode vector(packetBytes)
attr source packetSent
attr title "packets sent, packetBytes"
vector 103 S2C.u1.cellularNic.pdcpRrc receivedPacketFromUpperLayer:vector(packetBytes) ETV
attr interpolationmode none
attr recordingmode vector(packetBytes)
attr source receivedPacketFromUpperLayer
vector 104 S2C.u1.cellularNic.pdcpRrc sentPacketToLowerLayer:vector(packetBytes) ETV
attr interpolationmode none
attr recordingmode vector(packetBytes)
attr source sentPacketToLowerLayer
vector 105 S2C.u1.cellularNic.nrRlc.um receivedPacketFromUpperLayer:vector(packetBytes) ETV
attr interpolationmode none
attr recordingmode vector(packetBytes)
attr source receivedPacketFromUpperLayer
vector 106 S2C.u1.cellularNic.nrMac receivedPacketFromUpperLayer:vector(packetBytes) ETV
attr interpolationmode none
attr recordingmode vector(packetBytes)
attr source receivedPacketFromUpperLayer
vector 107 S2C.gnb.cellularNic.mac avgServedBlocksUl:vector ETV
attr recordingmode vector
attr source avgServedBlocksUl
attr title "Avg Served Blocks Ul"
attr unit blocks
vector 108 S2C.gnb.cellularNic.mac avgServedBlocksDl:vector ETV
attr recordingmode vector
attr source avgServedBlocksDl
attr title "Avg Served Blocks Dl"
attr unit blocks
vector 109 S2C.u1.cellularNic.nrMac sentPacketToLowerLayer:vector(packetBytes) ETV
attr interpolationmode none
attr recordingmode vector(packetBytes)
attr source sentPacketToLowerLayer
vector 110 S2C.u1.cellularNic.channelModel[0] measuredSinrUl:vector ETV
attr recordingmode vector
attr source measuredSinrUl
attr title "SINR measured at feedback computation, UL"
attr unit dB
vector 111 S2C.u1.cellularNic.channelModel[0] measuredSinrDl:vector ETV
attr recordingmode vector
attr source measuredSinrDl
attr title "SINR measured at feedback computation, DL"
attr unit dB
vector 112 S2C.gnb.cellularNic.mac receivedPacketFromLowerLayer:vector(packetBytes) ETV
attr interpolationmode none
attr recordingmode vector(packetBytes)
attr source receivedPacketFromLowerLayer
vector 113 S2C.u1.cellularNic.nrChannelModel[0] measuredSinrUl:vector ETV
attr recordingmode vector
attr source measuredSinrUl
attr title "SINR measured at feedback computation, UL"
attr unit dB
vector 114 S2C.u1.cellularNic.nrChannelModel[0] measuredSinrDl:vector ETV
attr recordingmode vector
attr source measuredSinrDl
attr title "SINR measured at feedback computation, DL"
attr unit dB
vector 115 S2C.u2.cellularNic.channelModel[0] measuredSinrUl:vector ETV
attr recordingmode vector
attr source measuredSinrUl
attr title "SINR measured at feedback computation, UL"
attr unit dB
vector 116 S2C.u2.cellularNic.channelModel[0] measuredSinrDl:vector ETV
attr recordingmode vector
attr source measuredSinrDl
attr title "SINR measured at feedback computation, DL"
attr unit dB
vector 117 S2C.u2.cellularNic.nrChannelModel[0] measuredSinrUl:vector ETV
attr recordingmode vector
attr source measuredSinrUl
attr title "SINR measured at feedback computation, UL"
attr unit dB
vector 118 S2C.u2.cellularNic.nrChannelModel[0] measuredSinrDl:vector ETV
attr recordingmode vector
attr source measuredSinrDl
attr title "SINR measured at feedback computation, DL"
attr unit dB
vector 119 S2C.gnb.cellularNic.mac sentPacketToLowerLayer:vector(packetBytes) ETV
attr interpolationmode none
attr recordingmode vector(packetBytes)
attr source sentPacketToLowerLayer
vector 120 S2C.u1.cellularNic.nrMac receivedPacketFromLowerLayer:vector(packetBytes) ETV
attr interpolationmode none
attr recordingmode vector(packetBytes)
attr source receivedPacketFromLowerLayer
vector 121 S2C.u1.cellularNic.nrMac sentPacketToUpperLayer:vector(packetBytes) ETV
attr interpolationmode none
attr recordingmode vector(packetBytes)
attr source sentPacketToUpperLayer
vector 122 S2C.u1.cellularNic.nrRlc.um rlcPacketLossUl:vector ETV
attr recordingmode vector
attr source rlcPacketLossUl
attr title "rlc Packet Loss"
attr unit ""
vector 123 S2C.u1.cellularNic.nrRlc.um sentPacketToLowerLayer:vector(packetBytes) ETV
attr interpolationmode none
attr recordingmode vector(packetBytes)
attr source sentPacketToLowerLayer
vector 124 S2C.u1.cellularNic.nrPhy averageCqiUl:vector ETV
attr recordingmode vector
attr source averageCqiUl
attr title "Average Cqi reported in UL"
attr unit cqi
vector 125 S2C.u1.cellularNic.nrChannelModel[0] rcvdSinrUl:vector ETV
attr recordingmode vector
attr source rcvdSinrUl
attr title "SINR measured at packet reception, UL"
attr unit dB
vector 126 S2C.u1.cellularNic.nrMac macDelayUl:vector ETV
attr recordingmode vector
attr source macDelayUl
attr title "Delay at the MAC layer UL"
attr unit s
vector 127 S2C.gnb.cellularNic.mac sentPacketToUpperLayer:vector(packetBytes) ETV
attr interpolationmode none
attr recordingmode vector(packetBytes)
attr source sentPacketToUpperLayer
vector 128 S2C.gnb.cellularNic.rlc.um receivedPacketFromLowerLayer:vector(packetBytes) ETV
attr interpolationmode none
attr recordingmode vector(packetBytes)
attr source receivedPacketFromLowerLayer
vector 129 S2C.u1.cellularNic.nrRlc.um rlcPduThroughputUl:vector ETV
attr recordingmode vector
attr source rlcPduThroughputUl
attr title "Throughput at the rlc layer UL"
attr unit Bps
vector 130 S2C.u1.cellularNic.nrRlc.um rlcPduDelayUl:vector ETV
attr recordingmode vector
attr source rlcPduDelayUl
attr title "Delay at the rlc layer UL"
attr unit s
vector 131 S2C.u1.cellularNic.nrRlc.um rlcPduPacketLossUl:vector ETV
attr recordingmode vector
attr source rlcPduPacketLossUl
attr title "rlc Packet Loss"
attr unit ""
vector 132 S2C.u1.cellularNic.nrMac harqErrorRate_1st_Ul:vector ETV
attr recordingmode vector
attr source harqErrorRate_1st_Ul
attr title "Harq Error Rate Ul (1st tx)"
attr unit ""
vector 133 S2C.u1.cellularNic.nrMac harqErrorRateUl:vector ETV
attr recordingmode vector
attr source harqErrorRateUl
attr title "Harq Error Rate Ul"
attr unit ""
vector 134 S2C.u1.cellularNic.nrMac harqTxAttemptsUl:vector ETV
attr recordingmode vector
attr source harqTxAttemptsUl
attr title "Harq Tx Attempts Ul"
attr unit ""
0	0	0	0
0	0	0	0
1	0	0	0
1	0	0	0
2	0	0	0
3	0	0	0
4	0	0	0
5	0	0	0
5	0	0	0
6	0	0	0
6	0	0	0
7	0	0	0
7	0	0	0
8	0	0	0
8	0	0	0
9	0	0	0
10	0	0	0
11	0	0	0
12	0	0	0
13	0	0	0
13	0	0	0
14	0	0	0
14	0	0	0
15	0	0	0
16	0	0	0
17	0	0	0
18	0	0	0
19	0	0	0
20	0	0	0
20	0	0	0
20	27	0.0000108	1
20	39	0.00001176	0
20	161	0.0100108	1
20	173	0.01001176	0
21	0	0	0
21	0	0	0
21	25	0	1
21	27	0.0000108	0
21	149	0.01	1
21	161	0.0100108	0
22	0	0	0
23	0	0	0
24	0	0	0
25	0	0	0
26	0	0	0
27	0	0	0
28	0	0	0
28	0	0	0
29	0	0	0
29	0	0	0
30	0	0	0
30	0	0	0
31	0	0	0
31	0	0	0
32	0	0	0
33	0	0	0
34	0	0	0
35	0	0	0
36	0	0	0
37	0	0	0
38	0	0	0
38	0	0	0
39	0	0	0
39	0	0	0
40	0	0	1
41	0	0	1
42	0	0	1
43	0	0	1
44	0	0	8000
45	0	0	8000
46	0	0	1
46	0	0	1
47	0	0	0
48	0	0	1
48	0	0	1
49	0	0	0
50	0	0	1
50	0	0	1
51	0	0	0
52	0	0	1
52	0	0	1
53	0	0	0
54	0	0	616
54	144	0.01	616
55	0	0	1
56	0	0	1
57	0	0	1
58	0	0	0
59	0	0	1
60	0	0	0
61	0	0	1
62	0	0	0
63	0	0	1
64	0	0	0
65	11	0	77
65	145	0.01	77
66	22	0	85
66	146	0.01	85
67	24	0	840
67	148	0.01	840
68	24	0	840
68	148	0.01	840
69	24	0	840
69	148	0.01	840
70	24	0	840
70	148	0.01	840
71	24	0	840
71	148	0.01	840
72	24	0	872
72	148	0.01	872
73	24	0	872
73	148	0.01	872
74	24	0	984
74	148	0.01	984
75	24	0	984
75	148	0.01	984
76	24	0	984
76	148	0.01	984
77	24	0	984
77	148	0.01	984
78	24	0	1016
78	148	0.01	1016
79	24	0	1016
79	148	0.01	1016
80	24	0	1
80	25	0	0
80	148	0.01	1
80	149	0.01	0
81	24	0	1016
81	25	0	0
81	148	0.01	1016
81	149	0.01	0
82	25	0	0
82	149	0.01	0
83	25	0	1016
83	149	0.01	1016
84	25	0	1016
84	149	0.01	1016
85	25	0	1016
85	149	0.01	1016
86	25	0	1016
86	149	0.01	1016
87	25	0	1016
87	149	0.01	1016
88	25	0	1016
88	149	0.01	1016
89	25	0	1080
89	149	0.01	1080
90	25	0	1080
90	149	0.01	1080
91	25	0	1080
91	149	0.01	1080
92	26	0.0000108	1.08e-05
92	160	0.0100108	1.08e-05
93	26	0.0000108	1080
93	160	0.0100108	1080
94	26	0.0000108	1080
94	160	0.0100108	1080
95	26	0.0000108	1080
95	160	0.0100108	1080
96	26	0.0000108	1016
96	160	0.0100108	1016
97	26	0.0000108	1016
97	160	0.0100108	1016
98	26	0.0000108	1016
98	160	0.0100108	1016
99	26	0.0000108	1016
99	160	0.0100108	1016
100	26	0.0000108	1016
100	160	0.0100108	1016
101	27	0.0000108	1.08e-05
101	161	0.0100108	1.08e-05
102	30	0.0000108	143
102	164	0.0100108	143
103	35	0.0000108	163
103	169	0.0100108	163
104	35	0.0000108	164
104	169	0.0100108	164
105	36	0.0000108	164
105	170	0.0100108	164
106	38	0.0000108	166
106	92	0.005	143
106	172	0.0100108	166
106	181	0.011	143
107	45	0.001	0
107	52	0.002	0
107	69	0.003	1
107	78	0.004	0
107	86	0.005	0
107	102	0.006	0
107	114	0.007	0
107	120	0.008	0
107	134	0.009	1
107	150	0.01	0
107	175	0.011	0
107	191	0.012	0
108	45	0.001	0
108	52	0.002	0
108	69	0.003	0
108	78	0.004	0
108	86	0.005	0
108	102	0.006	0
108	114	0.007	0
108	120	0.008	0
108	134	0.009	0
108	150	0.01	0
108	175	0.011	0
108	191	0.012	0
109	47	0.001	1
109	96	0.005	145
109	185	0.011	145
109	193	0.012	1
110	58	0.002	23.387483725099
110	126	0.008	23.387483725099
111	58	0.002	35.192381063507
111	126	0.008	35.192381063507
112	59	0.002	1
112	61	0.002	1
112	63	0.002	1
112	65	0.002	1
112	67	0.002	1
112	109	0.006	145
112	127	0.008	1
112	129	0.008	1
112	131	0.008	1
112	133	0.008	1
112	199	0.012	145
113	60	0.002	45.58155060937
113	128	0.008	45.58155060937
114	60	0.002	43.254887350218
114	128	0.008	43.254887350218
115	62	0.002	18.922269754233
115	130	0.008	18.922269754233
116	62	0.002	50.030647477442
116	130	0.008	50.030647477442
117	64	0.002	32.874679866925
117	132	0.008	32.874679866925
118	64	0.002	42.322981551384
118	132	0.008	42.322981551384
119	67	0.002	1
119	69	0.003	1
119	134	0.009	1
119	134	0.009	1
120	77	0.003	1
120	85	0.004	1
120	157	0.01	1
120	159	0.01	1
121	88	0.005	1
121	177	0.011	1
122	90	0.005	0
122	179	0.011	0
123	90	0.005	143
123	179	0.011	143
124	97	0.005	15
124	186	0.011	15
125	108	0.006	49.722051217118
125	198	0.012	49.722051217118
126	134	0.009	0.004
127	134	0.009	143
128	138	0.009	143
129	138	0.009	0
130	138	0.009	0.004
131	138	0.009	0
132	157	0.01	0
133	157	0.01	0
134	157	0.01	1
vector 135 S2C.u1.cellularNic.nrRlc.um rlcThroughputUl:vector ETV
attr recordingmode vector
attr source rlcThroughputUl
attr title "Throughput at the rlc layer UL"
attr unit Bps
vector 136 S2C.u1.cellularNic.nrRlc.um rlcPacketLossTotal:vector ETV
attr recordingmode vector
attr source rlcPacketLossTotal
attr title "rlc Packet Loss"
attr unit ""
vector 137 S2C.u1.cellularNic.nrRlc.um rlcDelayUl:vector ETV
attr recordingmode vector
attr source rlcDelayUl
attr title "Delay at the rlc layer UL"
attr unit s
vector 138 S2C.gnb.cellularNic.rlc.um sentPacketToUpperLayer:vector(packetBytes) ETV
attr interpolationmode none
attr recordingmode vector(packetBytes)
attr source sentPacketToUpperLayer
vector 139 S2C.gnb.cellularNic.pdcpRrc receivedPacketFromLowerLayer:vector(packetBytes) ETV
attr interpolationmode none
attr recordingmode vector(packetBytes)
attr source receivedPacketFromLowerLayer
vector 140 S2C.gnb.cellularNic.pdcpRrc sentPacketToUpperLayer:vector(packetBytes) ETV
attr interpolationmode none
attr recordingmode vector(packetBytes)
attr source sentPacketToUpperLayer
vector 141 S2C.gnb.udp packetSent:vector(packetBytes) ETV
attr interpolationmode none
attr recordingmode vector(packetBytes)
attr source packetSent
attr title "packets sent, packetBytes"
vector 142 S2C.gnb.pppIf.queue incomingPacketLengths:vector ETV
attr interpolationmode none
attr recordingmode vector
attr source packetLength(packetPushStarted)
attr title "incoming packet lengths"
attr unit b
vector 143 S2C.gnb.pppIf.queue queueingTime:vector ETV
attr interpolationmode none
attr recordingmode vector
attr source queueingTime(packetPulled)
attr title "queueing times"
attr unit s
vector 144 S2C.gnb.pppIf.queue outgoingPacketLengths:vector ETV
attr interpolationmode none
attr recordingmode vector
attr source packetLength(packetPulled)
attr title "outgoing packet lengths"
attr unit b
vector 145 S2C.gnb.pppIf.ppp rcvdPkFromHl:vector(packetBytes) ETV
attr interpolationmode none
attr recordingmode vector(packetBytes)
attr source packetReceivedFromUpper
attr title "packets received from higher layer, packetBytes"
vector 146 S2C.gnb.pppIf.ppp txPk:vector(packetBytes) ETV
attr interpolationmode none
attr recordingmode vector(packetBytes)
attr source packetSentToLower
attr title "packets transmitted, packetBytes"
vector 147 S2C.gnb.pppIf.queue queueLength:vector ETV
attr autoWarmupFilter false
attr interpolationmode sample-hold
attr recordingmode vector
attr source "warmup(atomic(constant0(packetPushEnded) + count(packetPushStarted) - count(packetPulled) - count(packetRemoved) - count(packetDropped)))"
attr title "queue length"
attr unit pk
vector 148 S2C.gnb.pppIf.queue queueBitLength:vector ETV
attr autoWarmupFilter false
attr interpolationmode sample-hold
attr recordingmode vector
attr source "warmup(atomic(constant0(packetPushEnded) + sum(packetLength(packetPushStarted)) - sum(packetLength(packetPulled)) - sum(packetLength(packetRemoved)) - sum(packetLength(packetDropped))))"
attr title "queue bit length"
attr unit b
15	240	0.015	1
107	204	0.013	0
107	213	0.014	1
107	230	0.015	0
108	204	0.013	0
108	213	0.014	0
108	230	0.015	0
110	220	0.014	23.387483725099
111	220	0.014	35.192381063507
112	211	0.013	1
112	221	0.014	1
112	223	0.014	1
112	225	0.014	1
112	227	0.014	1
113	222	0.014	45.58155060937
114	222	0.014	43.254887350218
115	224	0.014	18.922269754233
116	224	0.014	50.030647477442
117	226	0.014	32.874679866925
118	226	0.014	42.322981551384
119	211	0.013	1
119	213	0.014	1
119	230	0.015	1
120	229	0.014	1
120	247	0.015	1
122	233	0.015	0
126	230	0.015	0.004
127	230	0.015	143
128	233	0.015	143
129	233	0.015	0
130	233	0.015	0.004
131	233	0.015	0
135	233	0.015	10933.333333333
136	233	0.015	0
137	233	0.015	0.0149892
138	233	0.015	164
139	234	0.015	164
140	234	0.015	163
141	238	0.015	179
142	240	0.015	1592
143	240	0.015	0
144	240	0.015	1592
145	240	0.015	199
146	240	0.015	206
147	240	0.015	0
148	240	0.015	0
vector 149 S2C.upf.ppp[0].ppp rxPkOk:vector(packetBytes) ETV
attr interpolationmode none
attr recordingmode vector(packetBytes)
attr source rxPkOk
attr title "packets received OK, packetBytes"
vector 150 S2C.upf.ppp[0].ppp passedUpPk:vector(packetBytes) ETV
attr interpolationmode none
attr recordingmode vector(packetBytes)
attr source packetSentToUpper
attr title "packets passed to higher layer, packetBytes"
vector 151 S2C.upf.udp packetReceived:vector(packetBytes) ETV
attr interpolationmode none
attr recordingmode vector(packetBytes)
attr source packetReceived
attr title "packets received, packetBytes"
vector 152 S2C.upf.NWTT.macLayer.queue incomingPacketLengths:vector ETV
attr interpolationmode none
attr recordingmode vector
attr source packetLength(packetPushStarted)
attr title "incoming packet lengths"
attr unit b
vector 153 S2C.upf.NWTT.macLayer.queue queueLength:vector ETV
attr autoWarmupFilter false
attr interpolationmode sample-hold
attr recordingmode vector
attr source "warmup(atomic(constant0(packetPushEnded) + count(packetPushStarted) - count(packetPulled) - count(packetRemoved) - count(packetDropped)))"
attr title "queue length"
attr unit pk
vector 154 S2C.upf.NWTT.macLayer.queue queueBitLength:vector ETV
attr autoWarmupFilter false
attr interpolationmode sample-hold
attr recordingmode vector
attr source "warmup(atomic(constant0(packetPushEnded) + sum(packetLength(packetPushStarted)) - sum(packetLength(packetPulled)) - sum(packetLength(packetRemoved)) - sum(packetLength(packetDropped))))"
attr title "queue bit length"
attr unit b
vector 155 S2C.upf.NWTT.macLayer.queue queueingTime:vector ETV
attr interpolationmode none
attr recordingmode vector
attr source queueingTime(packetPulled)
attr title "queueing times"
attr unit s
vector 156 S2C.upf.NWTT.macLayer.queue outgoingPacketLengths:vector ETV
attr interpolationmode none
attr recordingmode vector
attr source packetLength(packetPulled)
attr title "outgoing packet lengths"
attr unit b
vector 157 S2C.upf.NWTT.macLayer.server incomingPacketLengths:vector ETV
attr interpolationmode none
attr recordingmode vector
attr source packetLength(packetPulled)
attr title "incoming packet lengths"
attr unit b
vector 158 S2C.upf.NWTT.macLayer.server outgoingPacketLengths:vector ETV
attr interpolationmode none
attr recordingmode vector
attr source packetLength(packetPushed)
attr title "outgoing packet lengths"
attr unit b
vector 159 S2C.upf.NWTT.macLayer.outboundEmitter incomingPacketLengths:vector ETV
attr interpolationmode none
attr recordingmode vector
attr source "packetLength(merge(packetPushedIn, packetPulledIn))"
attr title "incoming packet lengths"
attr unit b
vector 160 S2C.upf.NWTT.macLayer.outboundEmitter outgoingPacketLengths:vector ETV
attr interpolationmode none
attr recordingmode vector
attr source "packetLength(merge(packetPushedOut, packetPulledOut))"
attr title "outgoing packet lengths"
attr unit b
vector 161 S2C.upf.NWTT.phyLayer.phyHeaderInserter incomingPacketLengths:vector ETV
attr interpolationmode none
attr recordingmode vector
attr source "packetLength(merge(packetPushedIn, packetPulledIn))"
attr title "incoming packet lengths"
attr unit b
vector 162 S2C.upf.NWTT.phyLayer.phyHeaderInserter outgoingPacketLengths:vector ETV
attr interpolationmode none
attr recordingmode vector
attr source "packetLength(merge(packetPushedOut, packetPulledOut))"
attr title "outgoing packet lengths"
attr unit b
vector 163 S2C.upf.NWTT.phyLayer.outboundEmitter incomingPacketLengths:vector ETV
attr interpolationmode none
attr recordingmode vector
attr source "packetLength(merge(packetPushedIn, packetPulledIn))"
attr title "incoming packet lengths"
attr unit b
vector 164 S2C.upf.NWTT.phyLayer.outboundEmitter outgoingPacketLengths:vector ETV
attr interpolationmode none
attr recordingmode vector
attr source "packetLength(merge(packetPushedOut, packetPulledOut))"
attr title "outgoing packet lengths"
attr unit b
vector 165 S2C.upf.NWTT.phyLayer.transmitter transmissionTime:vector ETV
attr interpolationmode none
attr recordingmode vector
attr source packetDuration(transmissionEnded)
attr title "transmission time"
attr unit s
vector 166 S2C.tsnSwitch.eth[0].phyLayer.receiver receptionTime:vector ETV
attr interpolationmode none
attr recordingmode vector
attr source packetDuration(receptionEnded)
attr title "reception time"
attr unit s
vector 167 S2C.tsnSwitch.eth[0].phyLayer.inboundEmitter incomingPacketLengths:vector ETV
attr interpolationmode none
attr recordingmode vector
attr source "packetLength(merge(packetPushedIn, packetPulledIn))"
attr title "incoming packet lengths"
attr unit b
vector 168 S2C.tsnSwitch.eth[0].phyLayer.inboundEmitter outgoingPacketLengths:vector ETV
attr interpolationmode none
attr recordingmode vector
attr source "packetLength(merge(packetPushedOut, packetPulledOut))"
attr title "outgoing packet lengths"
attr unit b
vector 169 S2C.tsnSwitch.eth[0].phyLayer.phyHeaderChecker incomingPacketLengths:vector ETV
attr interpolationmode none
attr recordingmode vector
attr source "packetLength(merge(packetPushedIn, packetPulledIn))"
attr title "incoming packet lengths"
attr unit b
vector 170 S2C.tsnSwitch.eth[0].phyLayer.phyHeaderChecker outgoingPacketLengths:vector ETV
attr interpolationmode none
attr recordingmode vector
attr source "packetLength(merge(packetPushedOut, packetPulledOut))"
attr title "outgoing packet lengths"
attr unit b
vector 171 S2C.tsnSwitch.eth[0].macLayer.inboundEmitter incomingPacketLengths:vector ETV
attr interpolationmode none
attr recordingmode vector
attr source "packetLength(merge(packetPushedIn, packetPulledIn))"
attr title "incoming packet lengths"
attr unit b
vector 172 S2C.tsnSwitch.eth[0].macLayer.inboundEmitter outgoingPacketLengths:vector ETV
attr interpolationmode none
attr recordingmode vector
attr source "packetLength(merge(packetPushedOut, packetPulledOut))"
attr title "outgoing packet lengths"
attr unit b
vector 173 S2C.tsnSwitch.eth[0].macLayer.fcsChecker incomingPacketLengths:vector ETV
attr interpolationmode none
attr recordingmode vector
attr source "packetLength(merge(packetPushedIn, packetPulledIn))"
attr title "incoming packet lengths"
attr unit b
vector 174 S2C.tsnSwitch.eth[0].macLayer.fcsChecker outgoingPacketLengths:vector ETV
attr interpolationmode none
attr recordingmode vector
attr source "packetLength(merge(packetPushedOut, packetPulledOut))"
attr title "outgoing packet lengths"
attr unit b
vector 175 S2C.tsnSwitch.ethernet.fcsChecker incomingPacketLengths:vector ETV
attr interpolationmode none
attr recordingmode vector
attr source "packetLength(merge(packetPushedIn, packetPulledIn))"
attr title "incoming packet lengths"
attr unit b
vector 176 S2C.tsnSwitch.ethernet.fcsChecker outgoingPacketLengths:vector ETV
attr interpolationmode none
attr recordingmode vector
attr source "packetLength(merge(packetPushedOut, packetPulledOut))"
attr title "outgoing packet lengths"
attr unit b
vector 177 S2C.tsnSwitch.ethernet.macHeaderChecker incomingPacketLengths:vector ETV
attr interpolationmode none
attr recordingmode vector
attr source "packetLength(merge(packetPushedIn, packetPulledIn))"
attr title "incoming packet lengths"
attr unit b
vector 178 S2C.tsnSwitch.ethernet.macHeaderChecker outgoingPacketLengths:vector ETV
attr interpolationmode none
attr recordingmode vector
attr source "packetLength(merge(packetPushedOut, packetPulledOut))"
attr title "outgoing packet lengths"
attr unit b
vector 179 S2C.tsnSwitch.ieee8021q.qTagHeaderChecker incomingPacketLengths:vector ETV
attr interpolationmode none
attr recordingmode vector
attr source "packetLength(merge(packetPushedIn, packetPulledIn))"
attr title "incoming packet lengths"
attr unit b
vector 180 S2C.tsnSwitch.ieee8021q.qTagHeaderChecker outgoingPacketLengths:vector ETV
attr interpolationmode none
attr recordingmode vector
attr source "packetLength(merge(packetPushedOut, packetPulledOut))"
attr title "outgoing packet lengths"
attr unit b
vector 181 S2C.tsnSwitch.bridging.interfaceRelay.learner incomingPacketLengths:vector ETV
attr interpolationmode none
attr recordingmode vector
attr source "packetLength(merge(packetPushedIn, packetPulledIn))"
attr title "incoming packet lengths"
attr unit b
vector 182 S2C.tsnSwitch.bridging.interfaceRelay.learner outgoingPacketLengths:vector ETV
attr interpolationmode none
attr recordingmode vector
attr source "packetLength(merge(packetPushedOut, packetPulledOut))"
attr title "outgoing packet lengths"
attr unit b
vector 183 S2C.tsnSwitch.bridging.streamCoder.decoder incomingPacketLengths:vector ETV
attr interpolationmode none
attr recordingmode vector
attr source "packetLength(merge(packetPushedIn, packetPulledIn))"
attr title "incoming packet lengths"
attr unit b
vector 184 S2C.tsnSwitch.bridging.streamCoder.decoder outgoingPacketLengths:vector ETV
attr interpolationmode none
attr recordingmode vector
attr source "packetLength(merge(packetPushedOut, packetPulledOut))"
attr title "outgoing packet lengths"
attr unit b
vector 185 S2C.tsnSwitch.bridging.streamFilter.ingress.classifier packetLengths:vector ETV
attr interpolationmode none
attr recordingmode vector
attr source packetLength(packetPushed)
attr title "packet lengths"
attr unit b
vector 186 S2C.tsnSwitch.bridging.streamFilter.ingress.gate[1] incomingPacketLengths:vector ETV
attr interpolationmode none
attr moduledisplaypath S2C.tsnSwitch.bridging.streamFilter.ingress.video
attr recordingmode vector
attr source "packetLength(merge(packetPushedIn, packetPulledIn))"
attr title "incoming packet lengths"
attr unit b
vector 187 S2C.tsnSwitch.bridging.streamFilter.ingress.gate[1] outgoingPacketLengths:vector ETV
attr interpolationmode none
attr moduledisplaypath S2C.tsnSwitch.bridging.streamFilter.ingress.video
attr recordingmode vector
attr source "packetLength(merge(packetPushedOut, packetPulledOut))"
attr title "outgoing packet lengths"
attr unit b
vector 188 S2C.tsnSwitch.bridging.streamFilter.ingress.meter[1] incomingPacketLengths:vector ETV
attr interpolationmode none
attr moduledisplaypath S2C.tsnSwitch.bridging.streamFilter.ingress.video
attr recordingmode vector
attr source "packetLength(merge(packetPushedIn, packetPulledIn))"
attr title "incoming packet lengths"
attr unit b
vector 189 S2C.tsnSwitch.bridging.streamFilter.ingress.meter[1] outgoingPacketLengths:vector ETV
attr interpolationmode none
attr moduledisplaypath S2C.tsnSwitch.bridging.streamFilter.ingress.video
attr recordingmode vector
attr source "packetLength(merge(packetPushedOut, packetPulledOut))"
attr title "outgoing packet lengths"
attr unit b
vector 190 S2C.tsnSwitch.bridging.streamFilter.ingress.filter[1] incomingPacketLengths:vector ETV
attr interpolationmode none
attr moduledisplaypath S2C.tsnSwitch.bridging.streamFilter.ingress.video
attr recordingmode vector
attr source "packetLength(merge(packetPushedIn, packetPulledIn))"
attr title "incoming packet lengths"
attr unit b
vector 191 S2C.tsnSwitch.bridging.streamFilter.ingress.filter[1] outgoingPacketLengths:vector ETV
attr interpolationmode none
attr moduledisplaypath S2C.tsnSwitch.bridging.streamFilter.ingress.video
attr recordingmode vector
attr source "packetLength(merge(packetPushedOut, packetPulledOut))"
attr title "outgoing packet lengths"
attr unit b
vector 192 S2C.tsnSwitch.bridging.streamFilter.ingress.barrier incomingPacketLengths:vector ETV
attr interpolationmode none
attr recordingmode vector
attr source "packetLength(merge(packetPushedIn, packetPulledIn))"
attr title "incoming packet lengths"
attr unit b
vector 193 S2C.tsnSwitch.bridging.streamFilter.ingress.barrier outgoingPacketLengths:vector ETV
attr interpolationmode none
attr recordingmode vector
attr source "packetLength(merge(packetPushedOut, packetPulledOut))"
attr title "outgoing packet lengths"
attr unit b
vector 194 S2C.tsnSwitch.bridging.directionReverser.reverser incomingPacketLengths:vector ETV
attr interpolationmode none
attr recordingmode vector
attr source "packetLength(merge(packetPushedIn, packetPulledIn))"
attr title "incoming packet lengths"
attr unit b
vector 195 S2C.tsnSwitch.bridging.directionReverser.reverser outgoingPacketLengths:vector ETV
attr interpolationmode none
attr recordingmode vector
attr source "packetLength(merge(packetPushedOut, packetPulledOut))"
attr title "outgoing packet lengths"
attr unit b
vector 196 S2C.tsnSwitch.bridging.streamIdentifier.identifier incomingPacketLengths:vector ETV
attr interpolationmode none
attr recordingmode vector
attr source "packetLength(merge(packetPushedIn, packetPulledIn))"
attr title "incoming packet lengths"
attr unit b
vector 197 S2C.tsnSwitch.bridging.streamIdentifier.identifier outgoingPacketLengths:vector ETV
attr interpolationmode none
attr recordingmode vector
attr source "packetLength(merge(packetPushedOut, packetPulledOut))"
attr title "outgoing packet lengths"
attr unit b
vector 198 S2C.tsnSwitch.bridging.streamCoder.encoder incomingPacketLengths:vector ETV
attr interpolationmode none
attr recordingmode vector
attr source "packetLength(merge(packetPushedIn, packetPulledIn))"
attr title "incoming packet lengths"
attr unit b
vector 199 S2C.tsnSwitch.bridging.streamCoder.encoder outgoingPacketLengths:vector ETV
attr interpolationmode none
attr recordingmode vector
attr source "packetLength(merge(packetPushedOut, packetPulledOut))"
attr title "outgoing packet lengths"
attr unit b
vector 200 S2C.tsnSwitch.ieee8021q.qTagHeaderInserter incomingPacketLengths:vector ETV
attr interpolationmode none
attr recordingmode vector
attr source "packetLength(merge(packetPushedIn, packetPulledIn))"
attr title "incoming packet lengths"
attr unit b
vector 201 S2C.tsnSwitch.ieee8021q.qTagHeaderInserter outgoingPacketLengths:vector ETV
attr interpolationmode none
attr recordingmode vector
attr source "packetLength(merge(packetPushedOut, packetPulledOut))"
attr title "outgoing packet lengths"
attr unit b
vector 202 S2C.tsnSwitch.ethernet.macHeaderInserter incomingPacketLengths:vector ETV
attr interpolationmode none
attr recordingmode vector
attr source "packetLength(merge(packetPushedIn, packetPulledIn))"
attr title "incoming packet lengths"
attr unit b
vector 203 S2C.tsnSwitch.ethernet.macHeaderInserter outgoingPacketLengths:vector ETV
attr interpolationmode none
attr recordingmode vector
attr source "packetLength(merge(packetPushedOut, packetPulledOut))"
attr title "outgoing packet lengths"
attr unit b
vector 204 S2C.tsnSwitch.ethernet.paddingInserter incomingPacketLengths:vector ETV
attr interpolationmode none
attr recordingmode vector
attr source "packetLength(merge(packetPushedIn, packetPulledIn))"
attr title "incoming packet lengths"
attr unit b
vector 205 S2C.tsnSwitch.ethernet.paddingInserter outgoingPacketLengths:vector ETV
attr interpolationmode none
attr recordingmode vector
attr source "packetLength(merge(packetPushedOut, packetPulledOut))"
attr title "outgoing packet lengths"
attr unit b
vector 206 S2C.tsnSwitch.ethernet.fcsInserter incomingPacketLengths:vector ETV
attr interpolationmode none
attr recordingmode vector
attr source "packetLength(merge(packetPushedIn, packetPulledIn))"
attr title "incoming packet lengths"
attr unit b
vector 207 S2C.tsnSwitch.ethernet.fcsInserter outgoingPacketLengths:vector ETV
attr interpolationmode none
attr recordingmode vector
attr source "packetLength(merge(packetPushedOut, packetPulledOut))"
attr title "outgoing packet lengths"
attr unit b
vector 208 S2C.tsnSwitch.eth[1].macLayer.queue incomingPacketLengths:vector ETV
attr interpolationmode none
attr recordingmode vector
attr source packetLength(localSignal(packetPushStarted))
attr title "incoming packet lengths"
attr unit b
vector 209 S2C.tsnSwitch.eth[1].macLayer.queue.classifier packetLengths:vector ETV
attr interpolationmode none
attr recordingmode vector
attr source packetLength(packetPushed)
attr title "packet lengths"
attr unit b
vector 210 S2C.tsnSwitch.eth[1].macLayer.queue.queue[1] incomingPacketLengths:vector ETV
attr interpolationmode none
attr moduledisplaypath S2C.tsnSwitch.eth[1].macLayer.queue.video
attr recordingmode vector
attr source packetLength(packetPushStarted)
attr title "incoming packet lengths"
attr unit b
vector 211 S2C.tsnSwitch.eth[1].macLayer.queue.queue[1] queueLength:vector ETV
attr autoWarmupFilter false
attr interpolationmode sample-hold
attr moduledisplaypath S2C.tsnSwitch.eth[1].macLayer.queue.video
attr recordingmode vector
attr source "warmup(atomic(constant0(packetPushEnded) + count(packetPushStarted) - count(packetPulled) - count(packetRemoved) - count(packetDropped)))"
attr title "queue length"
attr unit pk
vector 212 S2C.tsnSwitch.eth[1].macLayer.queue.queue[1] queueBitLength:vector ETV
attr autoWarmupFilter false
attr interpolationmode sample-hold
attr moduledisplaypath S2C.tsnSwitch.eth[1].macLayer.queue.video
attr recordingmode vector
attr source "warmup(atomic(constant0(packetPushEnded) + sum(packetLength(packetPushStarted)) - sum(packetLength(packetPulled)) - sum(packetLength(packetRemoved)) - sum(packetLength(packetDropped))))"
attr title "queue bit length"
attr unit b
vector 213 S2C.tsnSwitch.eth[1].macLayer.queue queueLength:vector ETV
attr autoWarmupFilter false
attr interpolationmode sample-hold
attr recordingmode vector
attr source "warmup(atomic(constant0(localSignal(packetPushEnded)) + count(localSignal(packetPushStarted)) - count(localSignal(packetPulled)) - count(localSignal(packetRemoved)) - count(localSignal(packetDropped))))"
attr title "queue length"
attr unit pk
vector 214 S2C.tsnSwitch.eth[1].macLayer.queue queueBitLength:vector ETV
attr autoWarmupFilter false
attr interpolationmode sample-hold
attr recordingmode vector
attr source "warmup(atomic(constant0(localSignal(packetPushEnded)) + sum(packetLength(localSignal(packetPushStarted))) - sum(packetLength(localSignal(packetPulled))) - sum(packetLength(localSignal(packetRemoved))) - sum(packetLength(localSignal(packetDropped)))))"
attr title "queue bit length"
attr unit b
vector 215 S2C.tsnSwitch.eth[1].macLayer.queue.queue[1] queueingTime:vector ETV
attr interpolationmode none
attr moduledisplaypath S2C.tsnSwitch.eth[1].macLayer.queue.video
attr recordingmode vector
attr source queueingTime(packetPulled)
attr title "queueing times"
attr unit s
vector 216 S2C.tsnSwitch.eth[1].macLayer.queue.queue[1] outgoingPacketLengths:vector ETV
attr interpolationmode none
attr moduledisplaypath S2C.tsnSwitch.eth[1].macLayer.queue.video
attr recordingmode vector
attr source packetLength(packetPulled)
attr title "outgoing packet lengths"
attr unit b
vector 217 S2C.tsnSwitch.eth[1].macLayer.queue.transmissionSelectionAlgorithm[1] incomingPacketLengths:vector ETV
attr interpolationmode none
attr moduledisplaypath S2C.tsnSwitch.eth[1].macLayer.queue.video
attr recordingmode vector
attr source "packetLength(merge(packetPushedIn, packetPulledIn))"
attr title "incoming packet lengths"
attr unit b
vector 218 S2C.tsnSwitch.eth[1].macLayer.queue.transmissionSelectionAlgorithm[1] outgoingPacketLengths:vector ETV
attr interpolationmode none
attr moduledisplaypath S2C.tsnSwitch.eth[1].macLayer.queue.video
attr recordingmode vector
attr source "packetLength(merge(packetPushedOut, packetPulledOut))"
attr title "outgoing packet lengths"
attr unit b
vector 219 S2C.tsnSwitch.eth[1].macLayer.queue.transmissionGate[1] incomingPacketLengths:vector ETV
attr interpolationmode none
attr moduledisplaypath S2C.tsnSwitch.eth[1].macLayer.queue.video
attr recordingmode vector
attr source "packetLength(merge(packetPushedIn, packetPulledIn))"
attr title "incoming packet lengths"
attr unit b
vector 220 S2C.tsnSwitch.eth[1].macLayer.queue.transmissionGate[1] outgoingPacketLengths:vector ETV
attr interpolationmode none
attr moduledisplaypath S2C.tsnSwitch.eth[1].macLayer.queue.video
attr recordingmode vector
attr source "packetLength(merge(packetPushedOut, packetPulledOut))"
attr title "outgoing packet lengths"
attr unit b
vector 221 S2C.tsnSwitch.eth[1].macLayer.queue.transmissionSelection packetLengths:vector ETV
attr interpolationmode none
attr recordingmode vector
attr source packetLength(packetPulled)
attr title "packet lengths"
attr unit b
vector 222 S2C.tsnSwitch.eth[1].macLayer.queue queueingTime:vector ETV
attr interpolationmode none
attr recordingmode vector
attr source queueingTime(localSignal(packetPulled))
attr title "queueing times"
attr unit s
vector 223 S2C.tsnSwitch.eth[1].macLayer.queue outgoingPacketLengths:vector ETV
attr interpolationmode none
attr recordingmode vector
attr source packetLength(localSignal(packetPulled))
attr title "outgoing packet lengths"
attr unit b
vector 224 S2C.tsnSwitch.eth[1].macLayer.server incomingPacketLengths:vector ETV
attr interpolationmode none
attr recordingmode vector
attr source packetLength(packetPulled)
attr title "incoming packet lengths"
attr unit b
vector 225 S2C.tsnSwitch.eth[1].macLayer.server outgoingPacketLengths:vector ETV
attr interpolationmode none
attr recordingmode vector
attr source packetLength(packetPushed)
attr title "outgoing packet lengths"
attr unit b
vector 226 S2C.tsnSwitch.eth[1].macLayer.outboundEmitter incomingPacketLengths:vector ETV
attr interpolationmode none
attr recordingmode vector
attr source "packetLength(merge(packetPushedIn, packetPulledIn))"
attr title "incoming packet lengths"
attr unit b
vector 227 S2C.tsnSwitch.eth[1].macLayer.outboundEmitter outgoingPacketLengths:vector ETV
attr interpolationmode none
attr recordingmode vector
attr source "packetLength(merge(packetPushedOut, packetPulledOut))"
attr title "outgoing packet lengths"
attr unit b
vector 228 S2C.tsnSwitch.eth[1].phyLayer.phyHeaderInserter incomingPacketLengths:vector ETV
attr interpolationmode none
attr recordingmode vector
attr source "packetLength(merge(packetPushedIn, packetPulledIn))"
attr title "incoming packet lengths"
attr unit b
vector 229 S2C.tsnSwitch.eth[1].phyLayer.phyHeaderInserter outgoingPacketLengths:vector ETV
attr interpolationmode none
attr recordingmode vector
attr source "packetLength(merge(packetPushedOut, packetPulledOut))"
attr title "outgoing packet lengths"
attr unit b
vector 230 S2C.tsnSwitch.eth[1].phyLayer.outboundEmitter incomingPacketLengths:vector ETV
attr interpolationmode none
attr recordingmode vector
attr source "packetLength(merge(packetPushedIn, packetPulledIn))"
attr title "incoming packet lengths"
attr unit b
vector 231 S2C.tsnSwitch.eth[1].phyLayer.outboundEmitter outgoingPacketLengths:vector ETV
attr interpolationmode none
attr recordingmode vector
attr source "packetLength(merge(packetPushedOut, packetPulledOut))"
attr title "outgoing packet lengths"
attr unit b
vector 232 S2C.tsnSwitch.eth[1].phyLayer.transmitter transmissionTime:vector ETV
attr interpolationmode none
attr recordingmode vector
attr source packetDuration(transmissionEnded)
attr title "transmission time"
attr unit s
vector 233 S2C.Server.eth[0].phyLayer.receiver receptionTime:vector ETV
attr interpolationmode none
attr recordingmode vector
attr source packetDuration(receptionEnded)
attr title "reception time"
attr unit s
vector 234 S2C.Server.eth[0].phyLayer.inboundEmitter incomingPacketLengths:vector ETV
attr interpolationmode none
attr recordingmode vector
attr source "packetLength(merge(packetPushedIn, packetPulledIn))"
attr title "incoming packet lengths"
attr unit b
vector 235 S2C.Server.eth[0].phyLayer.inboundEmitter outgoingPacketLengths:vector ETV
attr interpolationmode none
attr recordingmode vector
attr source "packetLength(merge(packetPushedOut, packetPulledOut))"
attr title "outgoing packet lengths"
attr unit b
vector 236 S2C.Server.eth[0].phyLayer.phyHeaderChecker incomingPacketLengths:vector ETV
attr interpolationmode none
attr recordingmode vector
attr source "packetLength(merge(packetPushedIn, packetPulledIn))"
attr title "incoming packet lengths"
attr unit b
vector 237 S2C.Server.eth[0].phyLayer.phyHeaderChecker outgoingPacketLengths:vector ETV
attr interpolationmode none
attr recordingmode vector
attr source "packetLength(merge(packetPushedOut, packetPulledOut))"
attr title "outgoing packet lengths"
attr unit b
vector 238 S2C.Server.eth[0].macLayer.inboundEmitter incomingPacketLengths:vector ETV
attr interpolationmode none
attr recordingmode vector
attr source "packetLength(merge(packetPushedIn, packetPulledIn))"
attr title "incoming packet lengths"
attr unit b
vector 239 S2C.Server.eth[0].macLayer.inboundEmitter outgoingPacketLengths:vector ETV
attr interpolationmode none
attr recordingmode vector
attr source "packetLength(merge(packetPushedOut, packetPulledOut))"
attr title "outgoing packet lengths"
attr unit b
vector 240 S2C.Server.eth[0].macLayer.fcsChecker incomingPacketLengths:vector ETV
attr interpolationmode none
attr recordingmode vector
attr source "packetLength(merge(packetPushedIn, packetPulledIn))"
attr title "incoming packet lengths"
attr unit b
vector 241 S2C.Server.eth[0].macLayer.fcsChecker outgoingPacketLengths:vector ETV
attr interpolationmode none
attr recordingmode vector
attr source "packetLength(merge(packetPushedOut, packetPulledOut))"
attr title "outgoing packet lengths"
attr unit b
vector 242 S2C.Server.ethernet.fcsChecker incomingPacketLengths:vector ETV
attr interpolationmode none
attr recordingmode vector
attr source "packetLength(merge(packetPushedIn, packetPulledIn))"
attr title "incoming packet lengths"
attr unit b
vector 243 S2C.Server.ethernet.fcsChecker outgoingPacketLengths:vector ETV
attr interpolationmode none
attr recordingmode vector
attr source "packetLength(merge(packetPushedOut, packetPulledOut))"
attr title "outgoing packet lengths"
attr unit b
vector 244 S2C.Server.ethernet.macHeaderChecker incomingPacketLengths:vector ETV
attr interpolationmode none
attr recordingmode vector
attr source "packetLength(merge(packetPushedIn, packetPulledIn))"
attr title "incoming packet lengths"
attr unit b
vector 245 S2C.Server.ethernet.macHeaderChecker outgoingPacketLengths:vector ETV
attr interpolationmode none
attr recordingmode vector
attr source "packetLength(merge(packetPushedOut, packetPulledOut))"
attr title "outgoing packet lengths"
attr unit b
vector 246 S2C.Server.ieee8021q.qTagHeaderChecker incomingPacketLengths:vector ETV
attr interpolationmode none
attr recordingmode vector
attr source "packetLength(merge(packetPushedIn, packetPulledIn))"
attr title "incoming packet lengths"
attr unit b
vector 247 S2C.Server.ieee8021q.qTagHeaderChecker outgoingPacketLengths:vector ETV
attr interpolationmode none
attr recordingmode vector
attr source "packetLength(merge(packetPushedOut, packetPulledOut))"
attr title "outgoing packet lengths"
attr unit b
vector 248 S2C.Server.bridging.streamCoder.decoder incomingPacketLengths:vector ETV
attr interpolationmode none
attr recordingmode vector
attr source "packetLength(merge(packetPushedIn, packetPulledIn))"
attr title "incoming packet lengths"
attr unit b
vector 249 S2C.Server.bridging.streamCoder.decoder outgoingPacketLengths:vector ETV
attr interpolationmode none
attr recordingmode vector
attr source "packetLength(merge(packetPushedOut, packetPulledOut))"
attr title "outgoing packet lengths"
attr unit b
vector 250 S2C.Server.udp packetReceived:vector(packetBytes) ETV
attr interpolationmode none
attr recordingmode vector(packetBytes)
attr source packetReceived
attr title "packets received, packetBytes"
2	264	0.01504191	1
7	261	0.01504186	1
8	258	0.01503106	1
8	261	0.01504186	0
10	251	0.01501653	1
13	256	0.01503101	1
13	259	0.01503197	0
14	255	0.01501653	1
14	256	0.01503101	0
15	248	0.01501648	0
45	257	0	8000
45	257	0.01503106	8000
45	257	0.01503106	7160
53	257	0.01503106	0
53	257	0.01503106	0
53	258	0.01503106	0
53	258	0.01503106	0
149	249	0.01501653	206
150	249	0.01501653	199
151	251	0.01501653	179
152	254	0.01501653	1016
153	254	0.01501653	1
153	255	0.01501653	0
154	254	0.01501653	1016
154	255	0.01501653	0
155	255	0.01501653	0
156	255	0.01501653	1016
157	255	0.01501653	1016
158	255	0.01501653	1016
159	255	0.01501653	1016
160	255	0.01501653	1016
161	255	0.01501653	1016
162	255	0.01501653	1080
163	255	0.01501653	1080
164	255	0.01501653	1080
165	256	0.01503101	1.448e-05
166	257	0.01503106	1.448e-05
167	257	0.01503106	1080
168	257	0.01503106	1080
169	257	0.01503106	1080
170	257	0.01503106	1016
171	257	0.01503106	1016
172	257	0.01503106	1016
173	257	0.01503106	1016
174	257	0.01503106	1016
175	257	0.01503106	1016
176	257	0.01503106	984
177	257	0.01503106	984
178	257	0.01503106	872
179	257	0.01503106	872
180	257	0.01503106	840
181	257	0.01503106	840
182	257	0.01503106	840
183	257	0.01503106	840
184	257	0.01503106	840
185	257	0.01503106	840
186	257	0.01503106	840
187	257	0.01503106	840
188	257	0.01503106	840
189	257	0.01503106	840
190	257	0.01503106	840
191	257	0.01503106	840
192	257	0.01503106	840
193	257	0.01503106	840
194	257	0.01503106	840
195	257	0.01503106	840
196	257	0.01503106	840
197	257	0.01503106	840
198	257	0.01503106	840
199	257	0.01503106	840
200	257	0.01503106	840
201	257	0.01503106	872
202	257	0.01503106	872
203	257	0.01503106	984
204	257	0.01503106	984
205	257	0.01503106	984
206	257	0.01503106	984
207	257	0.01503106	1016
208	257	0.01503106	1016
209	257	0.01503106	1016
210	257	0.01503106	1016
211	257	0.01503106	1
211	258	0.01503106	0
212	257	0.01503106	1016
212	258	0.01503106	0
213	257	0.01503106	1
213	258	0.01503106	0
214	257	0.01503106	1016
214	258	0.01503106	0
215	258	0.01503106	0
216	258	0.01503106	1016
217	258	0.01503106	1016
218	258	0.01503106	1016
219	258	0.01503106	1016
220	258	0.01503106	1016
221	258	0.01503106	1016
222	258	0.01503106	0
223	258	0.01503106	1016
224	258	0.01503106	1016
225	258	0.01503106	1016
226	258	0.01503106	1016
227	258	0.01503106	1016
228	258	0.01503106	1016
229	258	0.01503106	1080
230	258	0.01503106	1080
231	258	0.01503106	1080
232	261	0.01504186	1.08e-05
233	262	0.01504191	1.08e-05
234	262	0.01504191	1080
235	262	0.01504191	1080
236	262	0.01504191	1080
237	262	0.01504191	1016
238	262	0.01504191	1016
239	262	0.01504191	1016
240	262	0.01504191	1016
241	262	0.01504191	1016
242	262	0.01504191	1016
243	262	0.01504191	984
244	262	0.01504191	984
245	262	0.01504191	872
246	262	0.01504191	872
247	262	0.01504191	840
248	262	0.01504191	840
249	262	0.01504191	840
250	264	0.01504191	85
vector 251 S2C.Server.app[1].io packetReceived:vector(packetBytes) ETV
attr interpolationmode none
attr moduledisplaypath S2C.Server.video.io
attr recordingmode vector(packetBytes)
attr source packetReceived
attr title "packets received, packetBytes"
vector 252 S2C.Server.app[1].sink packetLengths:vector ETV
attr interpolationmode none
attr moduledisplaypath S2C.Server.video.sink
attr recordingmode vector
attr source packetLength(packetPushed)
attr title "packet lengths"
attr unit b
vector 253 S2C.Server.app[1].sink droppedPacketLengths:vector ETV
attr interpolationmode none
attr moduledisplaypath S2C.Server.video.sink
attr recordingmode vector
attr source packetLength(packetDropped)
attr title "dropped packet lengths"
attr unit b
7	268	0.01504282	0
106	276	0.016	48
107	270	0.016	0
108	270	0.016	0
121	272	0.016	1
122	274	0.016	0
123	274	0.016	48
251	265	0.01504191	77
252	266	0.01504191	616
253	266	0.01504191	616
8	367	0.02003106	1
10	360	0.02001653	2
13	365	0.02003101	1
14	364	0.02001653	1
14	365	0.02003101	0
15	328	0.02	1
15	357	0.02001648	0
20	343	0.0200108	1
20	355	0.02001176	0
21	317	0.02	1
21	343	0.0200108	0
45	366	0.01587106	8000
45	366	0.02003106	8000
45	366	0.02003106	7160
53	366	0.02003106	0
53	366	0.02003106	0
53	367	0.02003106	0
53	367	0.02003106	0
54	312	0.02	616
65	313	0.02	77
66	314	0.02	85
67	316	0.02	840
68	316	0.02	840
69	316	0.02	840
70	316	0.02	840
71	316	0.02	840
72	316	0.02	872
73	316	0.02	872
74	316	0.02	984
75	316	0.02	984
76	316	0.02	984
77	316	0.02	984
78	316	0.02	1016
79	316	0.02	1016
80	316	0.02	1
80	317	0.02	0
81	316	0.02	1016
81	317	0.02	0
82	317	0.02	0
83	317	0.02	1016
84	317	0.02	1016
85	317	0.02	1016
86	317	0.02	1016
87	317	0.02	1016
88	317	0.02	1016
89	317	0.02	1080
90	317	0.02	1080
91	317	0.02	1080
92	342	0.0200108	1.08e-05
93	342	0.0200108	1080
94	342	0.0200108	1080
95	342	0.0200108	1080
96	342	0.0200108	1016
97	342	0.0200108	1016
98	342	0.0200108	1016
99	342	0.0200108	1016
100	342	0.0200108	1016
101	343	0.0200108	1.08e-05
102	346	0.0200108	143
103	351	0.0200108	163
104	351	0.0200108	164
105	352	0.0200108	164
106	354	0.0200108	166
107	284	0.017	0
107	296	0.018	0
107	306	0.019	0
107	318	0.02	0
108	284	0.017	0
108	296	0.018	0
108	306	0.019	0
108	318	0.02	0
109	280	0.016	50
110	334	0.02	23.387483725099
111	334	0.02	35.192381063507
112	291	0.017	50
112	335	0.02	1
112	337	0.02	1
112	339	0.02	1
112	341	0.02	1
113	336	0.02	45.58155060937
114	336	0.02	43.254887350218
115	338	0.02	18.922269754233
116	338	0.02	50.030647477442
117	340	0.02	32.874679866925
118	340	0.02	42.322981551384
119	318	0.02	1
120	283	0.016	1
122	321	0.02	0
124	281	0.016	15
125	290	0.017	49.722051217118
126	318	0.02	0.004
127	318	0.02	48
128	321	0.02	48
129	321	0.02	0
130	321	0.02	0.004
131	321	0.02	0
132	283	0.016	0
133	283	0.016	0
134	283	0.016	1
135	321	0.02	16400
136	321	0.02	0
137	321	0.02	0.0099892
138	321	0.02	164
139	322	0.02	164
140	322	0.02	163
141	326	0.02	179
142	328	0.02	1592
143	328	0.02	0
144	328	0.02	1592
145	328	0.02	199
146	328	0.02	206
147	328	0.02	0
148	328	0.02	0
149	358	0.02001653	206
150	358	0.02001653	199
151	360	0.02001653	179
152	363	0.02001653	1016
153	363	0.02001653	1
153	364	0.02001653	0
154	363	0.02001653	1016
154	364	0.02001653	0
155	364	0.02001653	0
156	364	0.02001653	1016
157	364	0.02001653	1016
158	364	0.02001653	1016
159	364	0.02001653	1016
160	364	0.02001653	1016
161	364	0.02001653	1016
162	364	0.02001653	1080
163	364	0.02001653	1080
164	364	0.02001653	1080
165	365	0.02003101	1.448e-05
166	366	0.02003106	1.448e-05
167	366	0.02003106	1080
168	366	0.02003106	1080
169	366	0.02003106	1080
170	366	0.02003106	1016
171	366	0.02003106	1016
172	366	0.02003106	1016
173	366	0.02003106	1016
174	366	0.02003106	1016
175	366	0.02003106	1016
176	366	0.02003106	984
177	366	0.02003106	984
178	366	0.02003106	872
179	366	0.02003106	872
180	366	0.02003106	840
181	366	0.02003106	840
182	366	0.02003106	840
183	366	0.02003106	840
184	366	0.02003106	840
185	366	0.02003106	840
186	366	0.02003106	840
187	366	0.02003106	840
188	366	0.02003106	840
189	366	0.02003106	840
190	366	0.02003106	840
191	366	0.02003106	840
192	366	0.02003106	840
193	366	0.02003106	840
194	366	0.02003106	840
195	366	0.02003106	840
196	366	0.02003106	840
197	366	0.02003106	840
198	366	0.02003106	840
199	366	0.02003106	840
200	366	0.02003106	840
201	366	0.02003106	872
202	366	0.02003106	872
203	366	0.02003106	984
204	366	0.02003106	984
205	366	0.02003106	984
206	366	0.02003106	984
207	366	0.02003106	1016
208	366	0.02003106	1016
209	366	0.02003106	1016
210	366	0.02003106	1016
211	366	0.02003106	1
211	367	0.02003106	0
212	366	0.02003106	1016
212	367	0.02003106	0
213	366	0.02003106	1
213	367	0.02003106	0
214	366	0.02003106	1016
214	367	0.02003106	0
215	367	0.02003106	0
216	367	0.02003106	1016
217	367	0.02003106	1016
218	367	0.02003106	1016
219	367	0.02003106	1016
220	367	0.02003106	1016
221	367	0.02003106	1016
222	367	0.02003106	0
223	367	0.02003106	1016
224	367	0.02003106	1016
225	367	0.02003106	1016
226	367	0.02003106	1016
227	367	0.02003106	1016
228	367	0.02003106	1016
229	367	0.02003106	1080
230	367	0.02003106	1080
231	367	0.02003106	1080
vector 254 S2C.Server.app[1].sink meanBitLifeTimePerPacket:vector ETV
attr interpolationmode none
attr moduledisplaypath S2C.Server.video.sink
attr recordingmode vector
attr source weightedMeanPerGroup(groupRegionsPerPacket(lifeTimePerRegion(packetPushed)))
attr title "mean bit life time per packet"
attr unit s
vector 255 S2C.Server.app[1].sink packetJitter:vector ETV
attr interpolationmode none
attr moduledisplaypath S2C.Server.video.sink
attr recordingmode vector
attr source jitter(weightedMeanPerGroup(groupRegionsPerPacket(lifeTimePerRegion(packetPushed))))
attr title "packet jitter"
attr unit s
vector 256 S2C.Server.app[1].sink packetDelayDifferenceToMean:vector ETV
attr interpolationmode none
attr moduledisplaypath S2C.Server.video.sink
attr recordingmode vector
attr source differenceToMean(weightedMeanPerGroup(groupRegionsPerPacket(lifeTimePerRegion(packetPushed))))
attr title "packet delay difference to mean"
attr unit s
vector 257 S2C.Server.app[1].sink packetDelayVariation:vector ETV
attr moduledisplaypath S2C.Server.video.sink
attr recordingmode vector
attr source stddev(weightedMeanPerGroup(groupRegionsPerPacket(lifeTimePerRegion(packetPushed))))
attr title "packet delay variation"
attr unit s
vector 258 S2C.Client1.app[0].source dataRate:vector ETV
[...]
attr title throughput
attr unit bps
vector 426 S2C.gnb.pppMEHostIf.queue outgoingDataRate:vector ETV
attr interpolationmode linear
attr recordingmode vector
attr source throughput(packetPulled)
attr title "outgoing datarate"
attr unit bps
vector 427 S2C.gnb.pppMEHostIf.queue incomingDataRate:vector ETV
attr interpolationmode linear
attr recordingmode vector
attr source throughput(packetPushStarted)
attr title "incoming datarate"
attr unit bps
vector 428 S2C.Client1.ethernet.macHeaderChecker droppedDataRate:vector ETV
attr interpolationmode linear
attr recordingmode vector
attr source throughput(packetDropped)
attr title "dropped data rate"
attr unit bps
vector 429 S2C.Client1.ethernet.fcsChecker droppedDataRate:vector ETV
attr interpolationmode linear
attr recordingmode vector
attr source throughput(packetDropped)
attr title "dropped data rate"
attr unit bps
vector 430 S2C.Client1.ieee8021q.qTagHeaderChecker droppedDataRate:vector ETV
attr interpolationmode linear
attr recordingmode vector
attr source throughput(packetDropped)
attr title "dropped data rate"
attr unit bps
vector 431 S2C.Client1.eth[0].macLayer.fcsChecker droppedDataRate:vector ETV
attr interpolationmode linear
attr recordingmode vector
attr source throughput(packetDropped)
attr title "dropped data rate"
attr unit bps
vector 432 S2C.Client1.eth[0].phyLayer.phyHeaderChecker droppedDataRate:vector ETV
attr interpolationmode linear
attr recordingmode vector
attr source throughput(packetDropped)
attr title "dropped data rate"
attr unit bps
vector 433 S2C.Client1.eth[0].phyLayer.receiver throughput:vector ETV
attr interpolationmode linear
attr recordingmode vector
attr source throughput(receptionEnded)
attr title throughput
attr unit bps
vector 434 S2C.u1.DSTT.macLayer.queue outgoingDataRate:vector ETV
attr interpolationmode linear
attr recordingmode vector
attr source throughput(packetPulled)
attr title "outgoing datarate"
attr unit bps
vector 435 S2C.u1.DSTT.macLayer.queue incomingDataRate:vector ETV
attr interpolationmode linear
attr recordingmode vector
attr source throughput(packetPushStarted)
attr title "incoming datarate"
attr unit bps
vector 436 S2C.u1.DSTT.macLayer.server incomingDataRate:vector ETV
attr interpolationmode linear
attr recordingmode vector
attr source throughput(packetPulled)
attr title "incoming datarate"
attr unit bps
vector 437 S2C.u1.DSTT.macLayer.server outgoingDataRate:vector ETV
attr interpolationmode linear
attr recordingmode vector
attr source throughput(packetPushed)
attr title "outgoing datarate"
attr unit bps
vector 438 S2C.u1.DSTT.macLayer.fcsChecker droppedDataRate:vector ETV
attr interpolationmode linear
attr recordingmode vector
attr source throughput(packetDropped)
attr title "dropped data rate"
attr unit bps
vector 439 S2C.u1.DSTT.phyLayer.transmitter throughput:vector ETV
attr interpolationmode linear
attr recordingmode vector
attr source throughput(transmissionEnded)
attr title throughput
attr unit bps
vector 440 S2C.u1.DSTT.phyLayer.phyHeaderChecker droppedDataRate:vector ETV
attr interpolationmode linear
attr recordingmode vector
attr source throughput(packetDropped)
attr title "dropped data rate"
attr unit bps
vector 441 S2C.Client2.ethernet.macHeaderChecker droppedDataRate:vector ETV
attr interpolationmode linear
attr recordingmode vector
attr source throughput(packetDropped)
attr title "dropped data rate"
attr unit bps
vector 442 S2C.Client2.ethernet.fcsChecker droppedDataRate:vector ETV
attr interpolationmode linear
attr recordingmode vector
attr source throughput(packetDropped)
attr title "dropped data rate"
attr unit bps
vector 443 S2C.Client2.ieee8021q.qTagHeaderChecker droppedDataRate:vector ETV
attr interpolationmode linear
attr recordingmode vector
attr source throughput(packetDropped)
attr title "dropped data rate"
attr unit bps
vector 444 S2C.Client2.eth[0].macLayer.queue outgoingDataRate:vector ETV
attr interpolationmode linear
attr recordingmode vector
attr source throughput(packetPulled)
attr title "outgoing datarate"
attr unit bps
vector 445 S2C.Client2.eth[0].macLayer.queue incomingDataRate:vector ETV
attr interpolationmode linear
attr recordingmode vector
attr source throughput(packetPushStarted)
attr title "incoming datarate"
attr unit bps
vector 446 S2C.Client2.eth[0].macLayer.server incomingDataRate:vector ETV
attr interpolationmode linear
attr recordingmode vector
attr source throughput(packetPulled)
attr title "incoming datarate"
attr unit bps
vector 447 S2C.Client2.eth[0].macLayer.server outgoingDataRate:vector ETV
attr interpolationmode linear
attr recordingmode vector
attr source throughput(packetPushed)
attr title "outgoing datarate"
attr unit bps
vector 448 S2C.Client2.eth[0].macLayer.fcsChecker droppedDataRate:vector ETV
attr interpolationmode linear
attr recordingmode vector
attr source throughput(packetDropped)
attr title "dropped data rate"
attr unit bps
vector 449 S2C.Client2.eth[0].phyLayer.transmitter throughput:vector ETV
attr interpolationmode linear
attr recordingmode vector
attr source throughput(transmissionEnded)
attr title throughput
attr unit bps
vector 450 S2C.Client2.eth[0].phyLayer.phyHeaderChecker droppedDataRate:vector ETV
attr interpolationmode linear
attr recordingmode vector
attr source throughput(packetDropped)
attr title "dropped data rate"
attr unit bps
vector 451 S2C.Client2.eth[0].phyLayer.receiver throughput:vector ETV
attr interpolationmode linear
attr recordingmode vector
attr source throughput(receptionEnded)
attr title throughput
attr unit bps
vector 452 S2C.u2.DSTT.macLayer.queue outgoingDataRate:vector ETV
attr interpolationmode linear
attr recordingmode vector
attr source throughput(packetPulled)
attr title "outgoing datarate"
attr unit bps
vector 453 S2C.u2.DSTT.macLayer.queue incomingDataRate:vector ETV
attr interpolationmode linear
attr recordingmode vector
attr source throughput(packetPushStarted)
attr title "incoming datarate"
attr unit bps
vector 454 S2C.u2.DSTT.macLayer.server incomingDataRate:vector ETV
attr interpolationmode linear
attr recordingmode vector
attr source throughput(packetPulled)
attr title "incoming datarate"
attr unit bps
vector 455 S2C.u2.DSTT.macLayer.server outgoingDataRate:vector ETV
attr interpolationmode linear
attr recordingmode vector
attr source throughput(packetPushed)
attr title "outgoing datarate"
attr unit bps
vector 456 S2C.u2.DSTT.macLayer.fcsChecker droppedDataRate:vector ETV
attr interpolationmode linear
attr recordingmode vector
attr source throughput(packetDropped)
attr title "dropped data rate"
attr unit bps
vector 457 S2C.u2.DSTT.phyLayer.transmitter throughput:vector ETV
attr interpolationmode linear
attr recordingmode vector
attr source throughput(transmissionEnded)
attr title throughput
attr unit bps
vector 458 S2C.u2.DSTT.phyLayer.phyHeaderChecker droppedDataRate:vector ETV
attr interpolationmode linear
attr recordingmode vector
attr source throughput(packetDropped)
attr title "dropped data rate"
attr unit bps
vector 459 S2C.u2.DSTT.phyLayer.receiver throughput:vector ETV
attr interpolationmode linear
attr recordingmode vector
attr source throughput(receptionEnded)
attr title throughput
attr unit bps
47	16550	0.999	0
49	16550	0.999	0
51	16550	0.999	0
53	16550	0.999	0
55	16550	0.999	1
56	16550	0.999	1
58	16550	0.999	0
60	16550	0.999	0
62	16550	0.999	0
64	16550	0.999	0
258	16550	0.999	62222.222222222
271	16550	0.999	102626.26262626
272	16550	0.999	102626.26262626
273	16550	0.999	102626.26262626
274	16550	0.999	102626.26262626
282	16550	0.999	160808.08080808
283	16550	0.999	160808.08080808
284	16550	0.999	109090.90909091
293	16550	0.999	109090.90909091
294	16550	0.999	102626.26262626
295	16550	0.999	102626.26262626
296	16550	0.999	102626.26262626
297	16550	0.999	102626.26262626
305	16550	0.999	109090.90909091
306	16550	0.999	109090.90909091
325	16550	0.999	84848.484848485
349	16550	0.999	102626.26262626
350	16550	0.999	102626.26262626
351	16550	0.999	102626.26262626
356	16550	0.999	102626.26262626
358	16550	0.999	102626.26262626
359	16550	0.999	102626.26262626
367	16550	0.999	109090.90909091
368	16550	0.999	109090.90909091
385	16550	0.999	62222.222222222
386	16550	0.999	62222.222222222
387	16550	0.1	0
387	16550	0.2	0
387	16550	0.3	0
387	16550	0.4	0
387	16550	0.5	0
387	16550	0.6	0
387	16550	0.7	0
387	16550	0.8	0
387	16550	0.9	0
387	16550	0.999	0
388	16550	0.1	0
388	16550	0.2	0
388	16550	0.3	0
388	16550	0.4	0
388	16550	0.5	0
388	16550	0.6	0
388	16550	0.7	0
388	16550	0.8	0
388	16550	0.9	0
388	16550	0.999	0
389	16550	0.1	0
389	16550	0.2	0
389	16550	0.3	0
389	16550	0.4	0
389	16550	0.5	0
389	16550	0.6	0
389	16550	0.7	0
389	16550	0.8	0
389	16550	0.9	0
389	16550	0.999	0
390	16550	0.1	0
390	16550	0.2	0
390	16550	0.3	0
390	16550	0.4	0
390	16550	0.5	0
390	16550	0.6	0
390	16550	0.7	0
390	16550	0.8	0
390	16550	0.9	0
390	16550	0.999	0
391	16550	0.1	0
391	16550	0.2	0
391	16550	0.3	0
391	16550	0.4	0
391	16550	0.5	0
391	16550	0.6	0
391	16550	0.7	0
391	16550	0.8	0
391	16550	0.9	0
391	16550	0.999	0
392	16550	0.1	0
392	16550	0.2	0
392	16550	0.3	0
392	16550	0.4	0
392	16550	0.5	0
392	16550	0.6	0
392	16550	0.7	0
392	16550	0.8	0
392	16550	0.9	0
392	16550	0.999	0
393	16550	0.1	0
393	16550	0.2	0
393	16550	0.3	0
393	16550	0.4	0
393	16550	0.5	0
393	16550	0.6	0
393	16550	0.7	0
393	16550	0.8	0
393	16550	0.9	0
393	16550	0.999	0
394	16550	0.1	0
394	16550	0.2	0
394	16550	0.3	0
394	16550	0.4	0
394	16550	0.5	0
394	16550	0.6	0
394	16550	0.7	0
394	16550	0.8	0
394	16550	0.9	0
394	16550	0.999	0
395	16550	0.1	0
395	16550	0.2	0
395	16550	0.3	0
395	16550	0.4	0
395	16550	0.5	0
395	16550	0.6	0
395	16550	0.7	0
395	16550	0.8	0
395	16550	0.9	0
395	16550	0.999	0
396	16550	0.1	0
396	16550	0.2	0
396	16550	0.3	0
396	16550	0.4	0
396	16550	0.5	0
396	16550	0.6	0
396	16550	0.7	0
396	16550	0.8	0
396	16550	0.9	0
396	16550	0.999	0
397	16550	0.1	0
397	16550	0.2	0
397	16550	0.3	0
397	16550	0.4	0
397	16550	0.5	0
397	16550	0.6	0
397	16550	0.7	0
397	16550	0.8	0
397	16550	0.9	0
397	16550	0.999	0
398	16550	0.1	0
398	16550	0.2	0
398	16550	0.3	0
398	16550	0.4	0
398	16550	0.5	0
398	16550	0.6	0
398	16550	0.7	0
398	16550	0.8	0
398	16550	0.9	0
398	16550	0.999	0
399	16550	0.1	0
399	16550	0.2	0
399	16550	0.3	0
399	16550	0.4	0
399	16550	0.5	0
399	16550	0.6	0
399	16550	0.7	0
399	16550	0.8	0
399	16550	0.9	0
399	16550	0.999	0
400	16550	0.1	0
400	16550	0.2	0
400	16550	0.3	0
400	16550	0.4	0
400	16550	0.5	0
400	16550	0.6	0
400	16550	0.7	0
400	16550	0.8	0
400	16550	0.9	0
400	16550	0.999	0
401	16550	0.1	0
401	16550	0.2	0
401	16550	0.3	0
401	16550	0.4	0
401	16550	0.5	0
401	16550	0.6	0
401	16550	0.7	0
401	16550	0.8	0
401	16550	0.9	0
401	16550	0.999	0
402	16550	0.1	0
402	16550	0.2	0
402	16550	0.3	0
402	16550	0.4	0
402	16550	0.5	0
402	16550	0.6	0
402	16550	0.7	0
402	16550	0.8	0
402	16550	0.9	0
402	16550	0.999	0
403	16550	0.1	0
403	16550	0.2	0
403	16550	0.3	0
403	16550	0.4	0
403	16550	0.5	0
403	16550	0.6	0
403	16550	0.7	0
403	16550	0.8	0
403	16550	0.9	0
403	16550	0.999	0
404	16550	0.1	0
404	16550	0.2	0
404	16550	0.3	0
404	16550	0.4	0
404	16550	0.5	0
404	16550	0.6	0
404	16550	0.7	0
404	16550	0.8	0
404	16550	0.9	0
404	16550	0.999	0
405	16550	0.1	0
405	16550	0.2	0
405	16550	0.3	0
405	16550	0.4	0
405	16550	0.5	0
405	16550	0.6	0
405	16550	0.7	0
405	16550	0.8	0
405	16550	0.9	0
405	16550	0.999	0
406	16550	0.1	0
406	16550	0.2	0
406	16550	0.3	0
406	16550	0.4	0
406	16550	0.5	0
406	16550	0.6	0
406	16550	0.7	0
406	16550	0.8	0
406	16550	0.9	0
406	16550	0.999	0
407	16550	0.1	0
407	16550	0.2	0
407	16550	0.3	0
407	16550	0.4	0
407	16550	0.5	0
407	16550	0.6	0
407	16550	0.7	0
407	16550	0.8	0
407	16550	0.9	0
407	16550	0.999	0
408	16550	0.1	0
408	16550	0.2	0
408	16550	0.3	0
408	16550	0.4	0
408	16550	0.5	0
408	16550	0.6	0
408	16550	0.7	0
408	16550	0.8	0
408	16550	0.9	0
408	16550	0.999	0
409	16550	0.1	0
409	16550	0.2	0
409	16550	0.3	0
409	16550	0.4	0
409	16550	0.5	0
409	16550	0.6	0
409	16550	0.7	0
409	16550	0.8	0
409	16550	0.9	0
409	16550	0.999	0
410	16550	0.1	0
410	16550	0.2	0
410	16550	0.3	0
410	16550	0.4	0
410	16550	0.5	0
410	16550	0.6	0
410	16550	0.7	0
410	16550	0.8	0
410	16550	0.9	0
410	16550	0.999	0
411	16550	0.1	0
411	16550	0.2	0
411	16550	0.3	0
411	16550	0.4	0
411	16550	0.5	0
411	16550	0.6	0
411	16550	0.7	0
411	16550	0.8	0
411	16550	0.9	0
411	16550	0.999	0
412	16550	0.1	0
412	16550	0.2	0
412	16550	0.3	0
412	16550	0.4	0
412	16550	0.5	0
412	16550	0.6	0
412	16550	0.7	0
412	16550	0.8	0
412	16550	0.9	0
412	16550	0.999	0
413	16550	0.1	0
413	16550	0.2	0
413	16550	0.3	0
413	16550	0.4	0
413	16550	0.5	0
413	16550	0.6	0
413	16550	0.7	0
413	16550	0.8	0
413	16550	0.9	0
413	16550	0.999	0
414	16550	0.1	0
414	16550	0.2	0
414	16550	0.3	0
414	16550	0.4	0
414	16550	0.5	0
414	16550	0.6	0
414	16550	0.7	0
414	16550	0.8	0
414	16550	0.9	0
414	16550	0.999	0
415	16550	0.1	0
415	16550	0.2	0
415	16550	0.3	0
415	16550	0.4	0
415	16550	0.5	0
415	16550	0.6	0
415	16550	0.7	0
415	16550	0.8	0
415	16550	0.9	0
415	16550	0.999	0
416	16550	0.1	0
416	16550	0.2	0
416	16550	0.3	0
416	16550	0.4	0
416	16550	0.5	0
416	16550	0.6	0
416	16550	0.7	0
416	16550	0.8	0
416	16550	0.9	0
416	16550	0.999	0
417	16550	0.1	0
417	16550	0.2	0
417	16550	0.3	0
417	16550	0.4	0
417	16550	0.5	0
417	16550	0.6	0
417	16550	0.7	0
417	16550	0.8	0
417	16550	0.9	0
417	16550	0.999	0
418	16550	0.1	0
418	16550	0.2	0
418	16550	0.3	0
418	16550	0.4	0
418	16550	0.5	0
418	16550	0.6	0
418	16550	0.7	0
418	16550	0.8	0
418	16550	0.9	0
418	16550	0.999	0
419	16550	0.1	0
419	16550	0.2	0
419	16550	0.3	0
419	16550	0.4	0
419	16550	0.5	0
419	16550	0.6	0
419	16550	0.7	0
419	16550	0.8	0
419	16550	0.9	0
419	16550	0.999	0
420	16550	0.1	0
420	16550	0.2	0
420	16550	0.3	0
420	16550	0.4	0
420	16550	0.5	0
420	16550	0.6	0
420	16550	0.7	0
420	16550	0.8	0
420	16550	0.9	0
420	16550	0.999	0
421	16550	0.1	0
421	16550	0.2	0
421	16550	0.3	0
421	16550	0.4	0
421	16550	0.5	0
421	16550	0.6	0
421	16550	0.7	0
421	16550	0.8	0
421	16550	0.9	0
421	16550	0.999	0
422	16550	0.1	0
422	16550	0.2	0
422	16550	0.3	0
422	16550	0.4	0
422	16550	0.5	0
422	16550	0.6	0
422	16550	0.7	0
422	16550	0.8	0
422	16550	0.9	0
422	16550	0.999	0
423	16550	0.1	0
423	16550	0.2	0
423	16550	0.3	0
423	16550	0.4	0
423	16550	0.5	0
423	16550	0.6	0
423	16550	0.7	0
423	16550	0.8	0
423	16550	0.9	0
423	16550	0.999	0
424	16550	0.1	0
424	16550	0.2	0
424	16550	0.3	0
424	16550	0.4	0
424	16550	0.5	0
424	16550	0.6	0
424	16550	0.7	0
424	16550	0.8	0
424	16550	0.9	0
424	16550	0.999	0
425	16550	0.1	0
425	16550	0.2	0
425	16550	0.3	0
425	16550	0.4	0
425	16550	0.5	0
425	16550	0.6	0
425	16550	0.7	0
425	16550	0.8	0
425	16550	0.9	0
425	16550	0.999	0
426	16550	0.1	0
426	16550	0.2	0
426	16550	0.3	0
426	16550	0.4	0
426	16550	0.5	0
426	16550	0.6	0
426	16550	0.7	0
426	16550	0.8	0
426	16550	0.9	0
426	16550	0.999	0
427	16550	0.1	0
427	16550	0.2	0
427	16550	0.3	0
427	16550	0.4	0
427	16550	0.5	0
427	16550	0.6	0
427	16550	0.7	0
427	16550	0.8	0
427	16550	0.9	0
427	16550	0.999	0
428	16550	0.1	0
428	16550	0.2	0
428	16550	0.3	0
428	16550	0.4	0
428	16550	0.5	0
428	16550	0.6	0
428	16550	0.7	0
428	16550	0.8	0
428	16550	0.9	0
428	16550	0.999	0
429	16550	0.1	0
429	16550	0.2	0
429	16550	0.3	0
429	16550	0.4	0
429	16550	0.5	0
429	16550	0.6	0
429	16550	0.7	0
429	16550	0.8	0
429	16550	0.9	0
429	16550	0.999	0
430	16550	0.1	0
430	16550	0.2	0
430	16550	0.3	0
430	16550	0.4	0
430	16550	0.5	0
430	16550	0.6	0
430	16550	0.7	0
430	16550	0.8	0
430	16550	0.9	0
430	16550	0.999	0
431	16550	0.1	0
431	16550	0.2	0
431	16550	0.3	0
431	16550	0.4	0
431	16550	0.5	0
431	16550	0.6	0
431	16550	0.7	0
431	16550	0.8	0
431	16550	0.9	0
431	16550	0.999	0
432	16550	0.1	0
432	16550	0.2	0
432	16550	0.3	0
432	16550	0.4	0
432	16550	0.5	0
432	16550	0.6	0
432	16550	0.7	0
432	16550	0.8	0
432	16550	0.9	0
432	16550	0.999	0
433	16550	0.1	0
433	16550	0.2	0
433	16550	0.3	0
433	16550	0.4	0
433	16550	0.5	0
433	16550	0.6	0
433	16550	0.7	0
433	16550	0.8	0
433	16550	0.9	0
433	16550	0.999	0
434	16550	0.1	0
434	16550	0.2	0
434	16550	0.3	0
434	16550	0.4	0
434	16550	0.5	0
434	16550	0.6	0
434	16550	0.7	0
434	16550	0.8	0
434	16550	0.9	0
434	16550	0.999	0
435	16550	0.1	0
435	16550	0.2	0
435	16550	0.3	0
435	16550	0.4	0
435	16550	0.5	0
435	16550	0.6	0
435	16550	0.7	0
435	16550	0.8	0
435	16550	0.9	0
435	16550	0.999	0
436	16550	0.1	0
436	16550	0.2	0
436	16550	0.3	0
436	16550	0.4	0
436	16550	0.5	0
436	16550	0.6	0
436	16550	0.7	0
436	16550	0.8	0
436	16550	0.9	0
436	16550	0.999	0
437	16550	0.1	0
437	16550	0.2	0
437	16550	0.3	0
437	16550	0.4	0
437	16550	0.5	0
437	16550	0.6	0
437	16550	0.7	0
437	16550	0.8	0
437	16550	0.9	0
437	16550	0.999	0
438	16550	0.1	0
438	16550	0.2	0
438	16550	0.3	0
438	16550	0.4	0
438	16550	0.5	0
438	16550	0.6	0
438	16550	0.7	0
438	16550	0.8	0
438	16550	0.9	0
438	16550	0.999	0
439	16550	0.1	0
439	16550	0.2	0
439	16550	0.3	0
439	16550	0.4	0
439	16550	0.5	0
439	16550	0.6	0
439	16550	0.7	0
439	16550	0.8	0
439	16550	0.9	0
439	16550	0.999	0
440	16550	0.1	0
440	16550	0.2	0
440	16550	0.3	0
440	16550	0.4	0
440	16550	0.5	0
440	16550	0.6	0
440	16550	0.7	0
440	16550	0.8	0
440	16550	0.9	0
440	16550	0.999	0
441	16550	0.1	0
441	16550	0.2	0
441	16550	0.3	0
441	16550	0.4	0
441	16550	0.5	0
441	16550	0.6	0
441	16550	0.7	0
441	16550	0.8	0
441	16550	0.9	0
441	16550	0.999	0
442	16550	0.1	0
442	16550	0.2	0
442	16550	0.3	0
442	16550	0.4	0
442	16550	0.5	0
442	16550	0.6	0
442	16550	0.7	0
442	16550	0.8	0
442	16550	0.9	0
442	16550	0.999	0
443	16550	0.1	0
443	16550	0.2	0
443	16550	0.3	0
443	16550	0.4	0
443	16550	0.5	0
443	16550	0.6	0
443	16550	0.7	0
443	16550	0.8	0
443	16550	0.9	0
443	16550	0.999	0
444	16550	0.1	0
444	16550	0.2	0
444	16550	0.3	0
444	16550	0.4	0
444	16550	0.5	0
444	16550	0.6	0
444	16550	0.7	0
444	16550	0.8	0
444	16550	0.9	0
444	16550	0.999	0
445	16550	0.1	0
445	16550	0.2	0
445	16550	0.3	0
445	16550	0.4	0
445	16550	0.5	0
445	16550	0.6	0
445	16550	0.7	0
445	16550	0.8	0
445	16550	0.9	0
445	16550	0.999	0
446	16550	0.1	0
446	16550	0.2	0
446	16550	0.3	0
446	16550	0.4	0
446	16550	0.5	0
446	16550	0.6	0
446	16550	0.7	0
446	16550	0.8	0
446	16550	0.9	0
446	16550	0.999	0
447	16550	0.1	0
447	16550	0.2	0
447	16550	0.3	0
447	16550	0.4	0
447	16550	0.5	0
447	16550	0.6	0
447	16550	0.7	0
447	16550	0.8	0
447	16550	0.9	0
447	16550	0.999	0
448	16550	0.1	0
448	16550	0.2	0
448	16550	0.3	0
448	16550	0.4	0
448	16550	0.5	0
448	16550	0.6	0
448	16550	0.7	0
448	16550	0.8	0
448	16550	0.9	0
448	16550	0.999	0
449	16550	0.1	0
449	16550	0.2	0
449	16550	0.3	0
449	16550	0.4	0
449	16550	0.5	0
449	16550	0.6	0
449	16550	0.7	0
449	16550	0.8	0
449	16550	0.9	0
449	16550	0.999	0
450	16550	0.1	0
450	16550	0.2	0
450	16550	0.3	0
450	16550	0.4	0
450	16550	0.5	0
450	16550	0.6	0
450	16550	0.7	0
450	16550	0.8	0
450	16550	0.9	0
450	16550	0.999	0
451	16550	0.1	0
451	16550	0.2	0
451	16550	0.3	0
451	16550	0.4	0
451	16550	0.5	0
451	16550	0.6	0
451	16550	0.7	0
451	16550	0.8	0
451	16550	0.9	0
451	16550	0.999	0
452	16550	0.1	0
452	16550	0.2	0
452	16550	0.3	0
452	16550	0.4	0
452	16550	0.5	0
452	16550	0.6	0
452	16550	0.7	0
452	16550	0.8	0
452	16550	0.9	0
452	16550	0.999	0
453	16550	0.1	0
453	16550	0.2	0
453	16550	0.3	0
453	16550	0.4	0
453	16550	0.5	0
453	16550	0.6	0
453	16550	0.7	0
453	16550	0.8	0
453	16550	0.9	0
453	16550	0.999	0
454	16550	0.1	0
454	16550	0.2	0
454	16550	0.3	0
454	16550	0.4	0
454	16550	0.5	0
454	16550	0.6	0
454	16550	0.7	0
454	16550	0.8	0
454	16550	0.9	0
454	16550	0.999	0
455	16550	0.1	0
455	16550	0.2	0
455	16550	0.3	0
455	16550	0.4	0
455	16550	0.5	0
455	16550	0.6	0
455	16550	0.7	0
455	16550	0.8	0
455	16550	0.9	0
455	16550	0.999	0
456	16550	0.1	0
456	16550	0.2	0
456	16550	0.3	0
456	16550	0.4	0
456	16550	0.5	0
456	16550	0.6	0
456	16550	0.7	0
456	16550	0.8	0
456	16550	0.9	0
456	16550	0.999	0
457	16550	0.1	0
457	16550	0.2	0
457	16550	0.3	0
457	16550	0.4	0
457	16550	0.5	0
457	16550	0.6	0
457	16550	0.7	0
457	16550	0.8	0
457	16550	0.9	0
457	16550	0.999	0
458	16550	0.1	0
458	16550	0.2	0
458	16550	0.3	0
458	16550	0.4	0
458	16550	0.5	0
458	16550	0.6	0
458	16550	0.7	0
458	16550	0.8	0
458	16550	0.9	0
458	16550	0.999	0
459	16550	0.1	0
459	16550	0.2	0
459	16550	0.3	0
459	16550	0.4	0
459	16550	0.5	0
459	16550	0.6	0
459	16550	0.7	0
459	16550	0.8	0
459	16550	0.9	0
459	16550	0.999	0

