version 3
run config2-0-20241210-08:19:26-30349
attr configname config2
attr datetime 20241210-08:19:26
attr datetimef 20241210-081926
attr experiment config2
attr inifile omnetpp.ini
attr iterationvars ""
attr iterationvarsd ""
attr iterationvarsf ""
attr measurement ""
attr network Topology
attr processid 30349
attr repetition 0
attr replication #0
attr resultdir results
attr runnumber 0
attr seedset 0
config image-path ../../../Downloads/TSN5G-master/inet4.5/images:../../simu5G/images
config extends General
config *.server.app[1..30].source.packetNameFormat "\"%h-%c-0\""
config *.server.app[3].source.initialProductionOffset 10.0ms
config *.server.app[4].source.initialProductionOffset 10.0184ms
config *.server.app[16].source.initialProductionOffset 10.0368ms
config *.server.app[24].source.initialProductionOffset 10.068ms
config *.server.app[23].source.initialProductionOffset 10.0928ms
config *.server.app[6].source.initialProductionOffset 10.1176ms
config *.server.app[2].source.initialProductionOffset 10.136ms
config *.server.app[7].source.initialProductionOffset 10.1544ms
config *.server.app[18].source.initialProductionOffset 10.1728ms
config *.server.app[9].source.initialProductionOffset 10.204ms
config *.server.app[1].source.initialProductionOffset 10.2224ms
config *.server.app[29].source.initialProductionOffset 10.2408ms
config *.server.app[20].source.initialProductionOffset 10.2656ms
config *.server.app[19].source.initialProductionOffset 10.2968ms
config *.server.app[15].source.initialProductionOffset 10.328ms
config *.server.app[28].source.initialProductionOffset 10.3592ms
config *.server.app[17].source.initialProductionOffset 10.384ms
config *.server.app[13].source.initialProductionOffset 10.4152ms
config *.server.app[25].source.initialProductionOffset 10.4464ms
config *.server.app[14].source.initialProductionOffset 10.4712ms
config *.server.app[8].source.initialProductionOffset 10.5024ms
config *.server.app[26].source.initialProductionOffset 10.5208ms
config *.server.app[27].source.initialProductionOffset 10.5456ms
config *.server.app[10].source.initialProductionOffset 10.5704ms
config *.server.app[22].source.initialProductionOffset 10.5888ms
config *.server.app[5].source.initialProductionOffset 10.6136ms
config *.server.app[11].source.initialProductionOffset 10.632ms
config *.server.app[21].source.initialProductionOffset 10.6632ms
config *.server.app[12].source.initialProductionOffset 10.688ms
config *.server.app[30].source.initialProductionOffset 10.7192ms
config *.switch*.eth[1].macLayer.queue.transmissionGate[0].offset 10ms
config *.switch1.eth[3].macLayer.queue.transmissionGate[0].durations []
config *.switch1.eth[2].macLayer.queue.transmissionGate[0].durations []
config *.switch2.eth[3].macLayer.queue.transmissionGate[0].durations "[1.001ms, 0.117ms, 0.883ms, 0.117ms, 0.883ms, 0.117ms, 0.883ms, 0.117ms, 0.883ms, 0.117ms, 0.054ms, 0.828ms]"
config *.switch2.eth[4].macLayer.queue.transmissionGate[0].durations []
config *.switch2.eth[2].macLayer.queue.transmissionGate[0].durations []
config *.switch3.eth[3].macLayer.queue.transmissionGate[0].durations "[2.001ms, 0.3ms, 1.7ms, 0.3ms, 0.7ms, 0.999ms]"
config *.switch3.eth[4].macLayer.queue.transmissionGate[0].durations []
config *.switch3.eth[2].macLayer.queue.transmissionGate[0].durations []
config *.switch4.eth[3].macLayer.queue.transmissionGate[0].durations "[0.076ms, 0.42ms, 1.035ms, 0.469ms, 1.001ms, 0.495ms, 0.035ms, 0.469ms, 1.001ms, 0.999ms]"
config *.switch4.eth[2].macLayer.queue.transmissionGate[0].durations []
config *.switch5.eth[0].macLayer.queue.transmissionGate[0].durations "[0.485ms, 0.196ms, 0.32ms, 0.135ms, 0.865ms, 0.135ms, 0.349ms, 0.232ms, 0.284ms, 0.135ms, 0.349ms, 0.196ms, 0.32ms, 0.135ms, 0.349ms, 0.232ms, 0.284ms, 0.135ms, 0.349ms, 0.515ms]"
config *.switch5.eth[1].macLayer.queue.transmissionGate[0].durations "[0.119ms, 0.135ms, 0.101ms, 0.216ms, 1.001ms, 0.428ms, 0.119ms, 0.204ms, 0.032ms, 0.216ms, 1.001ms, 0.428ms, 0.119ms, 0.204ms, 0.032ms, 0.216ms, 0.548ms, 0.881ms]"
config *.switch5.eth[2].macLayer.queue.transmissionGate[0].durations []
config *.switch6.eth[0].macLayer.queue.transmissionGate[0].durations "[0.212ms, 0.117ms, 1.883ms, 0.117ms, 0.118ms, 0.553ms, 1.212ms, 0.117ms, 0.118ms, 1.553ms]"
config *.switch6.eth[1].macLayer.queue.transmissionGate[0].durations "[0.237ms, 0.185ms, 1.092ms, 0.486ms, 1.237ms, 0.185ms, 0.366ms, 0.212ms, 1.001ms, 0.999ms]"
config *.switch6.eth[2].macLayer.queue.transmissionGate[0].durations []
config *.switch7.eth[2].macLayer.queue.transmissionGate[0].durations "[0.342ms, 0.16ms, 0.225ms, 0.273ms, 0.223ms, 0.279ms, 0.069ms, 0.429ms, 0.342ms, 0.16ms, 0.2ms, 0.298ms, 0.248ms, 0.254ms, 0.225ms, 0.273ms, 0.342ms, 0.16ms, 0.2ms, 0.298ms, 0.223ms, 0.279ms, 0.069ms, 0.429ms]"
config *.switch7.eth[1].macLayer.queue.transmissionGate[0].durations "[1.541ms, 0.521ms, 0.143ms, 0.118ms, 0.218ms, 0.459ms, 0.063ms, 0.229ms, 0.249ms, 0.521ms, 0.143ms, 0.118ms, 0.74ms, 0.937ms]"
config network Topology
config *.switch1.macTable.forwardingTable "[{address:\"0A-AA-00-00-00-01\", interface:\"eth2\"}]"
config *.switch2.macTable.forwardingTable "[{address:\"0A-AA-00-00-00-01\", interface:\"eth2\"}]"
config *.switch3.macTable.forwardingTable "[{address:\"0A-AA-00-00-00-01\", interface:\"eth2\"}]"
config *.switch4.macTable.forwardingTable "[{address:\"0A-AA-00-00-00-01\", interface:\"eth2\"}]"
config *.switch5.macTable.forwardingTable "[{address:\"0A-AA-00-00-00-01\", interface:\"eth2\"}]"
config *.switch6.macTable.forwardingTable "[{address:\"0A-AA-00-00-00-01\", interface:\"eth2\"}]"
config *.switch7.macTable.forwardingTable "[{address:\"0A-AA-00-00-00-01\", interface:\"eth0\"}]"
config **.selector.filePath "\"/home/simu5g/simu5g-workspace/test/iatest/path.txt\""
config **.ipv4.arp.typename GlobalArp
config *.*.hasOutgoingStreams true
config *.*Client*.bridging.streamIdentifier.identifier.mapping "[{stream: \"besteffort\", packetFilter: expr(has(udp) && udp.destPort == 1000)},\n\t\t\t\t\t\t\t\t\t\t\t\t\t\t\t{stream: \"video\", packetFilter: expr(has(udp) && udp.destPort == 1001)}]"
config *.*Client*.bridging.streamCoder.encoder.mapping "[{stream: \"besteffort\", pcp: 0},\n\t\t\t\t\t\t\t\t\t\t\t\t\t{stream: \"video\", pcp: 4}]"
config *.server.bridging.streamIdentifier.identifier.mapping "[{stream: \"besteffort\", packetFilter: expr(has(udp) && udp.destPort == 1000)},\n\t\t\t\t\t\t\t\t\t\t\t\t\t\t\t{stream: \"video\", packetFilter: expr(has(udp) && udp.destPort == 1001)}]"
config *.server.bridging.streamCoder.encoder.mapping "[{stream: \"besteffort\", pcp: 0},\n\t\t\t\t\t\t\t\t\t\t\t\t\t{stream: \"video\", pcp: 4}]"
config *.switch*.hasEgressTrafficShaping true
config *.switch*.bridging.directionReverser.reverser.excludeEncapsulationProtocols "[\"ieee8021qctag\"]"
config *.switch*.bridging.streamIdentifier.identifier.mapping "[{stream: \"besteffort\", packetFilter: expr(has(udp) && udp.destPort == 1000)},\n\t\t\t\t\t\t\t\t\t\t\t\t\t\t\t{stream: \"video\", packetFilter: expr(has(udp) && udp.destPort == 1001)}]"
config *.switch*.bridging.streamCoder.encoder.mapping "[{stream: \"besteffort\", pcp: 0},\n\t\t\t\t\t\t\t\t\t\t\t\t\t{stream: \"video\", pcp: 4}]"
config *.switch*.bridging.streamCoder.decoder.mapping "[{pcp: 0, stream: \"besteffort\"},\n                                                 {pcp: 4, stream: \"video\"}]"
config *.switch*.eth[*].macLayer.queue.numTrafficClasses 2
config *.switch*.eth[*].macLayer.queue.*[0].display-name besteffort
config *.switch*.eth[*].macLayer.queue.*[1].display-name video
config *.*Client*.numApps 3
config *.*Client*.app[0].typename UdpSourceApp
config *.*Client*.app[0].display-name besteffort
config *.*Client*.app[0].io.destAddress "\"server\""
config *.*Client*.app[0].io.destPort 1000
config *.*Client*.app[0].io.localPort 1002
config *.*Client*.app[0].source.packetLength 16B
config *.*Client*.app[0].source.productionInterval 2ms
config *.*Client*.app[0].source.initialProductionOffset 0s
config *.*Client*.app[1].typename UdpSinkApp
config *.*Client*.app[1].display-name video
config *.*Client*.app[1].io.localPort 1001
config *.*Client*.app[2].typename UdpSinkApp
config *.*Client*.app[2].display-name besteffort
config *.*Client*.app[2].io.localPort 1000
config *.server.numApps 31
config *.server.app[0].typename UdpSinkApp
config *.server.app[0].display-name besteffort
config *.server.app[0].io.localPort 1000
config *.server.app[1..30].typename UdpSourceApp
config *.server.app[1..30].display-name video
config *.server.app[11..20].display-name besteffort
config *.server.app[1..30].io.destPort 1001
config *.server.app[1..30].io.localPort 1000+ancestorIndex(1)
config *.server.app[1..10].source.packetLength 160B
config *.server.app[11..20].source.packetLength 320B
config *.server.app[21..30].source.packetLength 240B
config *.server.app[1..10].source.productionInterval 1ms
config *.server.app[11..20].source.productionInterval 2ms
config *.server.app[21..30].source.productionInterval 3ms
config *.server.app[1..5].io.destAddress "\"HVACClient[0]\""
config *.server.app[6..9].io.destAddress "\"HVACClient[1]\""
config *.server.app[10..14].io.destAddress "\"HVACClient[2]\""
config *.server.app[15..16].io.destAddress "\"HVACClient[3]\""
config *.server.app[17..20].io.destAddress "\"HVACClient[4]\""
config *.server.app[21..23].io.destAddress "\"HVACClient[5]\""
config *.server.app[24..27].io.destAddress "\"HVACClient[6]\""
config *.server.app[28..30].io.destAddress "\"HVACClient[7]\""

par Topology.HVACClient[0].ethg$o[0].channel typename "\"inet.node.ethernet.Eth100M\""
par Topology.HVACClient[0].ethg$o[0].channel disabled false
attr mutable ""
par Topology.HVACClient[0].ethg$o[0].channel delay 5e-08s
attr mutable ""
attr unit s
par Topology.HVACClient[0].ethg$o[0].channel datarate 1e+08bps
attr mutable ""
attr unit bps
par Topology.HVACClient[0].ethg$o[0].channel ber 0
attr mutable ""
par Topology.HVACClient[0].ethg$o[0].channel per 0
attr mutable ""
par Topology.HVACClient[0].ethg$o[0].channel length 10m
attr unit m
par Topology.switch1.ethg$o[0].channel typename "\"inet.node.ethernet.Eth100M\""
par Topology.switch1.ethg$o[0].channel disabled false
attr mutable ""
par Topology.switch1.ethg$o[0].channel delay 5e-08s
attr mutable ""
attr unit s
par Topology.switch1.ethg$o[0].channel datarate 1e+08bps
attr mutable ""
attr unit bps
par Topology.switch1.ethg$o[0].channel ber 0
attr mutable ""
par Topology.switch1.ethg$o[0].channel per 0
attr mutable ""
par Topology.switch1.ethg$o[0].channel length 10m
attr unit m
par Topology.HVACClient[1].ethg$o[0].channel typename "\"inet.node.ethernet.Eth100M\""
par Topology.HVACClient[1].ethg$o[0].channel disabled false
attr mutable ""
par Topology.HVACClient[1].ethg$o[0].channel delay 5e-08s
attr mutable ""
attr unit s
par Topology.HVACClient[1].ethg$o[0].channel datarate 1e+08bps
attr mutable ""
attr unit bps
par Topology.HVACClient[1].ethg$o[0].channel ber 0
attr mutable ""
par Topology.HVACClient[1].ethg$o[0].channel per 0
attr mutable ""
par Topology.HVACClient[1].ethg$o[0].channel length 10m
attr unit m
par Topology.switch1.ethg$o[1].channel typename "\"inet.node.ethernet.Eth100M\""
par Topology.switch1.ethg$o[1].channel disabled false
attr mutable ""
par Topology.switch1.ethg$o[1].channel delay 5e-08s
attr mutable ""
attr unit s
par Topology.switch1.ethg$o[1].channel datarate 1e+08bps
attr mutable ""
attr unit bps
par Topology.switch1.ethg$o[1].channel ber 0
attr mutable ""
par Topology.switch1.ethg$o[1].channel per 0
attr mutable ""
par Topology.switch1.ethg$o[1].channel length 10m
attr unit m
par Topology.HVACClient[2].ethg$o[0].channel typename "\"inet.node.ethernet.Eth100M\""
par Topology.HVACClient[2].ethg$o[0].channel disabled false
attr mutable ""
par Topology.HVACClient[2].ethg$o[0].channel delay 5e-08s
attr mutable ""
attr unit s
par Topology.HVACClient[2].ethg$o[0].channel datarate 1e+08bps
attr mutable ""
attr unit bps
par Topology.HVACClient[2].ethg$o[0].channel ber 0
attr mutable ""
par Topology.HVACClient[2].ethg$o[0].channel per 0
attr mutable ""
par Topology.HVACClient[2].ethg$o[0].channel length 10m
attr unit m
par Topology.switch2.ethg$o[0].channel typename "\"inet.node.ethernet.Eth100M\""
par Topology.switch2.ethg$o[0].channel disabled false
attr mutable ""
par Topology.switch2.ethg$o[0].channel delay 5e-08s
attr mutable ""
attr unit s
par Topology.switch2.ethg$o[0].channel datarate 1e+08bps
attr mutable ""
attr unit bps
par Topology.switch2.ethg$o[0].channel ber 0
attr mutable ""
par Topology.switch2.ethg$o[0].channel per 0
attr mutable ""
par Topology.switch2.ethg$o[0].channel length 10m
attr unit m
par Topology.HVACClient[3].ethg$o[0].channel typename "\"inet.node.ethernet.Eth100M\""
par Topology.HVACClient[3].ethg$o[0].channel disabled false
attr mutable ""
par Topology.HVACClient[3].ethg$o[0].channel delay 5e-08s
attr mutable ""
attr unit s
par Topology.HVACClient[3].ethg$o[0].channel datarate 1e+08bps
attr mutable ""
attr unit bps
par Topology.HVACClient[3].ethg$o[0].channel ber 0
attr mutable ""
par Topology.HVACClient[3].ethg$o[0].channel per 0
attr mutable ""
par Topology.HVACClient[3].ethg$o[0].channel length 10m
attr unit m
par Topology.switch2.ethg$o[1].channel typename "\"inet.node.ethernet.Eth100M\""
par Topology.switch2.ethg$o[1].channel disabled false
attr mutable ""
par Topology.switch2.ethg$o[1].channel delay 5e-08s
attr mutable ""
attr unit s
par Topology.switch2.ethg$o[1].channel datarate 1e+08bps
attr mutable ""
attr unit bps
par Topology.switch2.ethg$o[1].channel ber 0
attr mutable ""
par Topology.switch2.ethg$o[1].channel per 0
attr mutable ""
par Topology.switch2.ethg$o[1].channel length 10m
attr unit m
par Topology.HVACClient[4].ethg$o[0].channel typename "\"inet.node.ethernet.Eth100M\""
par Topology.HVACClient[4].ethg$o[0].channel disabled false
attr mutable ""
par Topology.HVACClient[4].ethg$o[0].channel delay 5e-08s
attr mutable ""
attr unit s
par Topology.HVACClient[4].ethg$o[0].channel datarate 1e+08bps
attr mutable ""
attr unit bps
par Topology.HVACClient[4].ethg$o[0].channel ber 0
attr mutable ""
par Topology.HVACClient[4].ethg$o[0].channel per 0
attr mutable ""
par Topology.HVACClient[4].ethg$o[0].channel length 10m
attr unit m
par Topology.switch3.ethg$o[0].channel typename "\"inet.node.ethernet.Eth100M\""
par Topology.switch3.ethg$o[0].channel disabled false
attr mutable ""
par Topology.switch3.ethg$o[0].channel delay 5e-08s
attr mutable ""
attr unit s
par Topology.switch3.ethg$o[0].channel datarate 1e+08bps
attr mutable ""
attr unit bps
par Topology.switch3.ethg$o[0].channel ber 0
attr mutable ""
par Topology.switch3.ethg$o[0].channel per 0
attr mutable ""
par Topology.switch3.ethg$o[0].channel length 10m
attr unit m
par Topology.HVACClient[5].ethg$o[0].channel typename "\"inet.node.ethernet.Eth100M\""
par Topology.HVACClient[5].ethg$o[0].channel disabled false
attr mutable ""
par Topology.HVACClient[5].ethg$o[0].channel delay 5e-08s
attr mutable ""
attr unit s
par Topology.HVACClient[5].ethg$o[0].channel datarate 1e+08bps
attr mutable ""
attr unit bps
par Topology.HVACClient[5].ethg$o[0].channel ber 0
attr mutable ""
par Topology.HVACClient[5].ethg$o[0].channel per 0
attr mutable ""
par Topology.HVACClient[5].ethg$o[0].channel length 10m
attr unit m
par Topology.switch3.ethg$o[1].channel typename "\"inet.node.ethernet.Eth100M\""
par Topology.switch3.ethg$o[1].channel disabled false
attr mutable ""
par Topology.switch3.ethg$o[1].channel delay 5e-08s
attr mutable ""
attr unit s
par Topology.switch3.ethg$o[1].channel datarate 1e+08bps
attr mutable ""
attr unit bps
par Topology.switch3.ethg$o[1].channel ber 0
attr mutable ""
par Topology.switch3.ethg$o[1].channel per 0
attr mutable ""
par Topology.switch3.ethg$o[1].channel length 10m
attr unit m
par Topology.HVACClient[6].ethg$o[0].channel typename "\"inet.node.ethernet.Eth100M\""
par Topology.HVACClient[6].ethg$o[0].channel disabled false
attr mutable ""
par Topology.HVACClient[6].ethg$o[0].channel delay 5e-08s
attr mutable ""
attr unit s
par Topology.HVACClient[6].ethg$o[0].channel datarate 1e+08bps
attr mutable ""
attr unit bps
par Topology.HVACClient[6].ethg$o[0].channel ber 0
attr mutable ""
par Topology.HVACClient[6].ethg$o[0].channel per 0
attr mutable ""
par Topology.HVACClient[6].ethg$o[0].channel length 10m
attr unit m
par Topology.switch4.ethg$o[0].channel typename "\"inet.node.ethernet.Eth100M\""
par Topology.switch4.ethg$o[0].channel disabled false
attr mutable ""
par Topology.switch4.ethg$o[0].channel delay 5e-08s
attr mutable ""
attr unit s
par Topology.switch4.ethg$o[0].channel datarate 1e+08bps
attr mutable ""
attr unit bps
par Topology.switch4.ethg$o[0].channel ber 0
attr mutable ""
par Topology.switch4.ethg$o[0].channel per 0
attr mutable ""
par Topology.switch4.ethg$o[0].channel length 10m
attr unit m
par Topology.HVACClient[7].ethg$o[0].channel typename "\"inet.node.ethernet.Eth100M\""
par Topology.HVACClient[7].ethg$o[0].channel disabled false
attr mutable ""
par Topology.HVACClient[7].ethg$o[0].channel delay 5e-08s
attr mutable ""
attr unit s
par Topology.HVACClient[7].ethg$o[0].channel datarate 1e+08bps
attr mutable ""
attr unit bps
par Topology.HVACClient[7].ethg$o[0].channel ber 0
attr mutable ""
par Topology.HVACClient[7].ethg$o[0].channel per 0
attr mutable ""
par Topology.HVACClient[7].ethg$o[0].channel length 10m
attr unit m
par Topology.switch4.ethg$o[1].channel typename "\"inet.node.ethernet.Eth100M\""
par Topology.switch4.ethg$o[1].channel disabled false
attr mutable ""
par Topology.switch4.ethg$o[1].channel delay 5e-08s
attr mutable ""
attr unit s
par Topology.switch4.ethg$o[1].channel datarate 1e+08bps
attr mutable ""
attr unit bps
par Topology.switch4.ethg$o[1].channel ber 0
attr mutable ""
par Topology.switch4.ethg$o[1].channel per 0
attr mutable ""
par Topology.switch4.ethg$o[1].channel length 10m
attr unit m
par Topology.switch1.ethg$o[2].channel typename "\"inet.node.ethernet.Eth100M\""
par Topology.switch1.ethg$o[2].channel disabled false
attr mutable ""
par Topology.switch1.ethg$o[2].channel delay 5e-08s
attr mutable ""
attr unit s
par Topology.switch1.ethg$o[2].channel datarate 1e+08bps
attr mutable ""
attr unit bps
par Topology.switch1.ethg$o[2].channel ber 0
attr mutable ""
par Topology.switch1.ethg$o[2].channel per 0
attr mutable ""
par Topology.switch1.ethg$o[2].channel length 10m
attr unit m
par Topology.switch5.ethg$o[0].channel typename "\"inet.node.ethernet.Eth100M\""
par Topology.switch5.ethg$o[0].channel disabled false
attr mutable ""
par Topology.switch5.ethg$o[0].channel delay 5e-08s
attr mutable ""
attr unit s
par Topology.switch5.ethg$o[0].channel datarate 1e+08bps
attr mutable ""
attr unit bps
par Topology.switch5.ethg$o[0].channel ber 0
attr mutable ""
par Topology.switch5.ethg$o[0].channel per 0
attr mutable ""
par Topology.switch5.ethg$o[0].channel length 10m
attr unit m
par Topology.switch2.ethg$o[2].channel typename "\"inet.node.ethernet.Eth100M\""
par Topology.switch2.ethg$o[2].channel disabled false
attr mutable ""
par Topology.switch2.ethg$o[2].channel delay 5e-08s
attr mutable ""
attr unit s
par Topology.switch2.ethg$o[2].channel datarate 1e+08bps
attr mutable ""
attr unit bps
par Topology.switch2.ethg$o[2].channel ber 0
attr mutable ""
par Topology.switch2.ethg$o[2].channel per 0
attr mutable ""
par Topology.switch2.ethg$o[2].channel length 10m
attr unit m
par Topology.switch5.ethg$o[1].channel typename "\"inet.node.ethernet.Eth100M\""
par Topology.switch5.ethg$o[1].channel disabled false
attr mutable ""
par Topology.switch5.ethg$o[1].channel delay 5e-08s
attr mutable ""
attr unit s
par Topology.switch5.ethg$o[1].channel datarate 1e+08bps
attr mutable ""
attr unit bps
par Topology.switch5.ethg$o[1].channel ber 0
attr mutable ""
par Topology.switch5.ethg$o[1].channel per 0
attr mutable ""
par Topology.switch5.ethg$o[1].channel length 10m
attr unit m
par Topology.switch3.ethg$o[2].channel typename "\"inet.node.ethernet.Eth100M\""
par Topology.switch3.ethg$o[2].channel disabled false
attr mutable ""
par Topology.switch3.ethg$o[2].channel delay 5e-08s
attr mutable ""
attr unit s
par Topology.switch3.ethg$o[2].channel datarate 1e+08bps
attr mutable ""
attr unit bps
par Topology.switch3.ethg$o[2].channel ber 0
attr mutable ""
par Topology.switch3.ethg$o[2].channel per 0
attr mutable ""
par Topology.switch3.ethg$o[2].channel length 10m
attr unit m
par Topology.switch6.ethg$o[0].channel typename "\"inet.node.ethernet.Eth100M\""
par Topology.switch6.ethg$o[0].channel disabled false
attr mutable ""
par Topology.switch6.ethg$o[0].channel delay 5e-08s
attr mutable ""
attr unit s
par Topology.switch6.ethg$o[0].channel datarate 1e+08bps
attr mutable ""
attr unit bps
par Topology.switch6.ethg$o[0].channel ber 0
attr mutable ""
par Topology.switch6.ethg$o[0].channel per 0
attr mutable ""
par Topology.switch6.ethg$o[0].channel length 10m
attr unit m
par Topology.switch4.ethg$o[2].channel typename "\"inet.node.ethernet.Eth100M\""
par Topology.switch4.ethg$o[2].channel disabled false
attr mutable ""
par Topology.switch4.ethg$o[2].channel delay 5e-08s
attr mutable ""
attr unit s
par Topology.switch4.ethg$o[2].channel datarate 1e+08bps
attr mutable ""
attr unit bps
par Topology.switch4.ethg$o[2].channel ber 0
attr mutable ""
par Topology.switch4.ethg$o[2].channel per 0
attr mutable ""
par Topology.switch4.ethg$o[2].channel length 10m
attr unit m
par Topology.switch6.ethg$o[1].channel typename "\"inet.node.ethernet.Eth100M\""
par Topology.switch6.ethg$o[1].channel disabled false
attr mutable ""
par Topology.switch6.ethg$o[1].channel delay 5e-08s
attr mutable ""
attr unit s
par Topology.switch6.ethg$o[1].channel datarate 1e+08bps
attr mutable ""
attr unit bps
par Topology.switch6.ethg$o[1].channel ber 0
attr mutable ""
par Topology.switch6.ethg$o[1].channel per 0
attr mutable ""
par Topology.switch6.ethg$o[1].channel length 10m
attr unit m
par Topology.switch1.ethg$o[3].channel typename "\"inet.node.ethernet.Eth100M\""
par Topology.switch1.ethg$o[3].channel disabled false
attr mutable ""
par Topology.switch1.ethg$o[3].channel delay 5e-08s
attr mutable ""
attr unit s
par Topology.switch1.ethg$o[3].channel datarate 1e+08bps
attr mutable ""
attr unit bps
par Topology.switch1.ethg$o[3].channel ber 0
attr mutable ""
par Topology.switch1.ethg$o[3].channel per 0
attr mutable ""
par Topology.switch1.ethg$o[3].channel length 10m
attr unit m
par Topology.switch2.ethg$o[3].channel typename "\"inet.node.ethernet.Eth100M\""
par Topology.switch2.ethg$o[3].channel disabled false
attr mutable ""
par Topology.switch2.ethg$o[3].channel delay 5e-08s
attr mutable ""
attr unit s
par Topology.switch2.ethg$o[3].channel datarate 1e+08bps
attr mutable ""
attr unit bps
par Topology.switch2.ethg$o[3].channel ber 0
attr mutable ""
par Topology.switch2.ethg$o[3].channel per 0
attr mutable ""
par Topology.switch2.ethg$o[3].channel length 10m
attr unit m
par Topology.switch2.ethg$o[4].channel typename "\"inet.node.ethernet.Eth100M\""
par Topology.switch2.ethg$o[4].channel disabled false
attr mutable ""
par Topology.switch2.ethg$o[4].channel delay 5e-08s
attr mutable ""
attr unit s
par Topology.switch2.ethg$o[4].channel datarate 1e+08bps
attr mutable ""
attr unit bps
par Topology.switch2.ethg$o[4].channel ber 0
attr mutable ""
par Topology.switch2.ethg$o[4].channel per 0
attr mutable ""
par Topology.switch2.ethg$o[4].channel length 10m
attr unit m
par Topology.switch3.ethg$o[3].channel typename "\"inet.node.ethernet.Eth100M\""
par Topology.switch3.ethg$o[3].channel disabled false
attr mutable ""
par Topology.switch3.ethg$o[3].channel delay 5e-08s
attr mutable ""
attr unit s
par Topology.switch3.ethg$o[3].channel datarate 1e+08bps
attr mutable ""
attr unit bps
par Topology.switch3.ethg$o[3].channel ber 0
attr mutable ""
par Topology.switch3.ethg$o[3].channel per 0
attr mutable ""
par Topology.switch3.ethg$o[3].channel length 10m
attr unit m
par Topology.switch3.ethg$o[4].channel typename "\"inet.node.ethernet.Eth100M\""
par Topology.switch3.ethg$o[4].channel disabled false
attr mutable ""
par Topology.switch3.ethg$o[4].channel delay 5e-08s
attr mutable ""
attr unit s
par Topology.switch3.ethg$o[4].channel datarate 1e+08bps
attr mutable ""
attr unit bps
par Topology.switch3.ethg$o[4].channel ber 0
attr mutable ""
par Topology.switch3.ethg$o[4].channel per 0
attr mutable ""
par Topology.switch3.ethg$o[4].channel length 10m
attr unit m
par Topology.switch4.ethg$o[3].channel typename "\"inet.node.ethernet.Eth100M\""
par Topology.switch4.ethg$o[3].channel disabled false
attr mutable ""
par Topology.switch4.ethg$o[3].channel delay 5e-08s
attr mutable ""
attr unit s
par Topology.switch4.ethg$o[3].channel datarate 1e+08bps
attr mutable ""
attr unit bps
par Topology.switch4.ethg$o[3].channel ber 0
attr mutable ""
par Topology.switch4.ethg$o[3].channel per 0
attr mutable ""
par Topology.switch4.ethg$o[3].channel length 10m
attr unit m
par Topology.switch7.ethg$o[0].channel typename "\"inet.node.ethernet.Eth100M\""
par Topology.switch7.ethg$o[0].channel disabled false
attr mutable ""
par Topology.switch7.ethg$o[0].channel delay 5e-08s
attr mutable ""
attr unit s
par Topology.switch7.ethg$o[0].channel datarate 1e+08bps
attr mutable ""
attr unit bps
par Topology.switch7.ethg$o[0].channel ber 0
attr mutable ""
par Topology.switch7.ethg$o[0].channel per 0
attr mutable ""
par Topology.switch7.ethg$o[0].channel length 10m
attr unit m
par Topology.server.ethg$o[0].channel typename "\"inet.node.ethernet.Eth100M\""
par Topology.server.ethg$o[0].channel disabled false
attr mutable ""
par Topology.server.ethg$o[0].channel delay 5e-08s
attr mutable ""
attr unit s
par Topology.server.ethg$o[0].channel datarate 1e+08bps
attr mutable ""
attr unit bps
par Topology.server.ethg$o[0].channel ber 0
attr mutable ""
par Topology.server.ethg$o[0].channel per 0
attr mutable ""
par Topology.server.ethg$o[0].channel length 10m
attr unit m
par Topology.switch6.ethg$o[2].channel typename "\"inet.node.ethernet.Eth100M\""
par Topology.switch6.ethg$o[2].channel disabled false
attr mutable ""
par Topology.switch6.ethg$o[2].channel delay 5e-08s
attr mutable ""
attr unit s
par Topology.switch6.ethg$o[2].channel datarate 1e+08bps
attr mutable ""
attr unit bps
par Topology.switch6.ethg$o[2].channel ber 0
attr mutable ""
par Topology.switch6.ethg$o[2].channel per 0
attr mutable ""
par Topology.switch6.ethg$o[2].channel length 10m
attr unit m
par Topology.switch7.ethg$o[1].channel typename "\"inet.node.ethernet.Eth100M\""
par Topology.switch7.ethg$o[1].channel disabled false
attr mutable ""
par Topology.switch7.ethg$o[1].channel delay 5e-08s
attr mutable ""
attr unit s
par Topology.switch7.ethg$o[1].channel datarate 1e+08bps
attr mutable ""
attr unit bps
par Topology.switch7.ethg$o[1].channel ber 0
attr mutable ""
par Topology.switch7.ethg$o[1].channel per 0
attr mutable ""
par Topology.switch7.ethg$o[1].channel length 10m
attr unit m
par Topology.switch5.ethg$o[2].channel typename "\"inet.node.ethernet.Eth100M\""
par Topology.switch5.ethg$o[2].channel disabled false
attr mutable ""
par Topology.switch5.ethg$o[2].channel delay 5e-08s
attr mutable ""
attr unit s
par Topology.switch5.ethg$o[2].channel datarate 1e+08bps
attr mutable ""
attr unit bps
par Topology.switch5.ethg$o[2].channel ber 0
attr mutable ""
par Topology.switch5.ethg$o[2].channel per 0
attr mutable ""
par Topology.switch5.ethg$o[2].channel length 10m
attr unit m
par Topology.switch7.ethg$o[2].channel typename "\"inet.node.ethernet.Eth100M\""
par Topology.switch7.ethg$o[2].channel disabled false
attr mutable ""
par Topology.switch7.ethg$o[2].channel delay 5e-08s
attr mutable ""
attr unit s
par Topology.switch7.ethg$o[2].channel datarate 1e+08bps
attr mutable ""
attr unit bps
par Topology.switch7.ethg$o[2].channel ber 0
attr mutable ""
par Topology.switch7.ethg$o[2].channel per 0
attr mutable ""
par Topology.switch7.ethg$o[2].channel length 10m
attr unit m
par Topology.scenarioManager typename "\"inet.common.scenario.ScenarioManager\""
par Topology.scenarioManager script "<script/> at content:1"
par Topology.carrierAggregation.componentCarrier[0] typename "\"simu5g.common.carrierAggregation.ComponentCarrier\""
par Topology.carrierAggregation.componentCarrier[0] carrierFrequency 2GHz
attr unit GHz
par Topology.carrierAggregation.componentCarrier[0] numBands 6
par Topology.carrierAggregation.componentCarrier[0] numerologyIndex 0
par Topology.carrierAggregation.componentCarrier[0] useTdd false
par Topology.carrierAggregation.componentCarrier[0] tddNumSymbolsDl 7
par Topology.carrierAggregation.componentCarrier[0] tddNumSymbolsUl 7
par Topology.carrierAggregation typename "\"simu5g.common.carrierAggregation.CarrierAggregation\""
par Topology.carrierAggregation numComponentCarriers 1
par Topology.channelControl typename "\"simu5g.world.radio.LteChannelControl\""
par Topology.channelControl coreDebug false
par Topology.channelControl pMax 20mW
attr unit mW
par Topology.channelControl sat -110dBm
attr unit dBm
par Topology.channelControl alpha 2
par Topology.channelControl carrierFrequency 2.4e+09Hz
attr unit Hz
par Topology.channelControl numChannels 1
par Topology.channelControl propagationModel "\"FreeSpaceModel\""
attr enum FreeSpaceModel,TwoRayGroundModel,RiceModel,RayleighModel,NakagamiModel,LogNormalShadowingModel
par Topology.configurator typename "\"inet.networklayer.configurator.ipv4.Ipv4NetworkConfigurator\""
par Topology.configurator minLinkWeight 0.001
par Topology.configurator configureIsolatedNetworksSeparatly false
par Topology.configurator config "<config>...</config> at content:1"
par Topology.configurator assignAddresses true
par Topology.configurator assignUniqueAddresses true
par Topology.configurator assignDisjunctSubnetAddresses true
par Topology.configurator addStaticRoutes true
par Topology.configurator addDefaultRoutes true
par Topology.configurator addSubnetRoutes true
par Topology.configurator addDirectRoutes true
par Topology.configurator optimizeRoutes true
par Topology.configurator dumpTopology false
par Topology.configurator dumpLinks false
par Topology.configurator dumpAddresses false
par Topology.configurator dumpRoutes false
par Topology.configurator dumpConfig "\"\""
par Topology.routingRecorder typename "\"inet.networklayer.ipv4.RoutingTableRecorder\""
par Topology.routingRecorder enabled true
par Topology.binder typename "\"simu5g.common.binder.Binder\""
par Topology.binder blerShift 0
par Topology.binder maxDataRatePerRb 1.16Mbps
attr unit Mbps
par Topology.binder printTrafficGeneratorConfig false
par Topology.server.ethg$i[0].channel typename "\"ned.IdealChannel\""
par Topology.server.eth[0].phys$o.channel typename "\"ned.IdealChannel\""
par Topology.server.interfaceTable typename "\"inet.networklayer.common.InterfaceTable\""
par Topology.server.interfaceTable displayAddresses false
par Topology.server.cb typename "\"inet.common.MessageDispatcher\""
par Topology.server.cb displayStringTextFormat "\"processed %p pk (%l)\""
par Topology.server.cb forwardServiceRegistration true
par Topology.server.cb forwardProtocolRegistration true
par Topology.server.bridging.directionReverser.upperLayerIn.channel typename "\"ned.IdealChannel\""
par Topology.server.bridging.directionReverser.join.out.channel typename "\"ned.IdealChannel\""
par Topology.server.bridging.directionReverser.lowerLayerIn.channel typename "\"ned.IdealChannel\""
par Topology.server.bridging.directionReverser.fork.out[0].channel typename "\"ned.IdealChannel\""
par Topology.server.bridging.directionReverser.fork typename "\"inet.common.MessageDispatcher\""
par Topology.server.bridging.directionReverser.fork displayStringTextFormat "\"processed %p pk (%l)\""
par Topology.server.bridging.directionReverser.fork forwardServiceRegistration false
par Topology.server.bridging.directionReverser.fork forwardProtocolRegistration true
par Topology.server.bridging.directionReverser.reverser typename "\"inet.linklayer.ethernet.common.PacketDirectionReverser\""
par Topology.server.bridging.directionReverser.reverser displayStringTextFormat "\"processed %p pk (%l)\""
par Topology.server.bridging.directionReverser.reverser forwardVlan true
par Topology.server.bridging.directionReverser.reverser forwardPcp true
par Topology.server.bridging.directionReverser.reverser excludeEncapsulationProtocols []
scalar Topology.server.bridging.directionReverser.reverser outgoingPackets:count 0
attr recordingmode count
attr source "merge(packetPushedOut, packetPulledOut)"
attr title "outgoing packets, count"
attr unit pk
scalar Topology.server.bridging.directionReverser.reverser outgoingPacketLengths:sum 0
attr interpolationmode none
attr recordingmode sum
attr source "packetLength(merge(packetPushedOut, packetPulledOut))"
attr title "outgoing packet lengths, sum"
attr unit b
statistic Topology.server.bridging.directionReverser.reverser outgoingPacketLengths:histogram
field count 0
field mean -nan
field stddev nan
field min nan
field max nan
field sum 0
field sqrsum 0
attr interpolationmode none
attr recordingmode histogram
attr source "packetLength(merge(packetPushedOut, packetPulledOut))"
attr title "outgoing packet lengths"
attr unit b
bin	-inf	0
bin	0	0
bin	1	0
scalar Topology.server.bridging.directionReverser.reverser flowOutgoingPacketLengths:sum 0
attr interpolationmode none
attr recordingmode sum
attr source "packetLength(demuxFlow(merge(packetPushedOut, packetPulledOut)))"
attr title "flow specific outgoing packet lengths, sum"
attr unit b
statistic Topology.server.bridging.directionReverser.reverser flowOutgoingPacketLengths:histogram
field count 0
field mean -nan
field stddev nan
field min nan
field max nan
field sum 0
field sqrsum 0
attr interpolationmode none
attr recordingmode histogram
attr source "packetLength(demuxFlow(merge(packetPushedOut, packetPulledOut)))"
attr title "flow specific outgoing packet lengths"
attr unit b
bin	-inf	0
bin	0	0
bin	1	0
scalar Topology.server.bridging.directionReverser.reverser incomingPackets:count 0
attr recordingmode count
attr source "merge(packetPushedIn, packetPulledIn)"
attr title "incoming packets, count"
attr unit pk
scalar Topology.server.bridging.directionReverser.reverser incomingPacketLengths:sum 0
attr interpolationmode none
attr recordingmode sum
attr source "packetLength(merge(packetPushedIn, packetPulledIn))"
attr title "incoming packet lengths, sum"
attr unit b
statistic Topology.server.bridging.directionReverser.reverser incomingPacketLengths:histogram
field count 0
field mean -nan
field stddev nan
field min nan
field max nan
field sum 0
field sqrsum 0
attr interpolationmode none
attr recordingmode histogram
attr source "packetLength(merge(packetPushedIn, packetPulledIn))"
attr title "incoming packet lengths"
attr unit b
bin	-inf	0
bin	0	0
bin	1	0
scalar Topology.server.bridging.directionReverser.reverser flowIncomingPacketLengths:sum 0
attr interpolationmode none
attr recordingmode sum
attr source "packetLength(demuxFlow(merge(packetPushedIn, packetPulledIn)))"
attr title "flow specific incoming packet lengths, sum"
attr unit b
statistic Topology.server.bridging.directionReverser.reverser flowIncomingPacketLengths:histogram
field count 0
field mean -nan
field stddev nan
field min nan
field max nan
field sum 0
field sqrsum 0
attr interpolationmode none
attr recordingmode histogram
attr source "packetLength(demuxFlow(merge(packetPushedIn, packetPulledIn)))"
attr title "flow specific incoming packet lengths"
attr unit b
bin	-inf	0
bin	0	0
bin	1	0
par Topology.server.bridging.directionReverser.join typename "\"inet.queueing.common.PacketMultiplexer\""
par Topology.server.bridging.directionReverser.join displayStringTextFormat "\"passed %p pk (%l)\""
par Topology.server.bridging.directionReverser.join forwardServiceRegistration true
par Topology.server.bridging.directionReverser.join forwardProtocolRegistration false
scalar Topology.server.bridging.directionReverser.join packets:count 0
attr recordingmode count
attr source "merge(packetPushed, packetPulled)"
attr title "packets, count"
attr unit pk
scalar Topology.server.bridging.directionReverser.join packetLengths:sum 0
attr interpolationmode none
attr recordingmode sum
attr source "packetLength(merge(packetPushed, packetPulled))"
attr title "packet lengths, sum"
attr unit b
statistic Topology.server.bridging.directionReverser.join packetLengths:histogram
field count 0
field mean -nan
field stddev nan
field min nan
field max nan
field sum 0
field sqrsum 0
attr interpolationmode none
attr recordingmode histogram
attr source "packetLength(merge(packetPushed, packetPulled))"
attr title "packet lengths"
attr unit b
bin	-inf	0
bin	0	0
bin	1	0
par Topology.server.bridging.directionReverser typename "\"inet.linklayer.ethernet.common.DirectionReverserLayer\""
par Topology.server.bridging.streamIdentifier.upperLayerIn.channel typename "\"ned.IdealChannel\""
par Topology.server.bridging.streamIdentifier.identifier.out.channel typename "\"ned.IdealChannel\""
par Topology.server.bridging.streamIdentifier.identifier typename "\"inet.protocolelement.redundancy.StreamIdentifier\""
par Topology.server.bridging.streamIdentifier.identifier displayStringTextFormat "\"processed %p pk (%l)\""
par Topology.server.bridging.streamIdentifier.identifier hasSequenceNumbering false
par Topology.server.bridging.streamIdentifier.identifier mapping "[{packetFilter: (omnetpp::cOwnedDynamicExpression)mapping.array1319.map256., stream: \"besteffort\"}, {packetFilter: (omnetpp::cOwnedDynamicExpression)mapping.array1319.map257., stream: \"video\"}]"
attr mutable ""
scalar Topology.server.bridging.streamIdentifier.identifier outgoingPackets:count 0
attr recordingmode count
attr source "merge(packetPushedOut, packetPulledOut)"
attr title "outgoing packets, count"
attr unit pk
scalar Topology.server.bridging.streamIdentifier.identifier outgoingPacketLengths:sum 0
attr interpolationmode none
attr recordingmode sum
attr source "packetLength(merge(packetPushedOut, packetPulledOut))"
attr title "outgoing packet lengths, sum"
attr unit b
statistic Topology.server.bridging.streamIdentifier.identifier outgoingPacketLengths:histogram
field count 0
field mean -nan
field stddev nan
field min nan
field max nan
field sum 0
field sqrsum 0
attr interpolationmode none
attr recordingmode histogram
attr source "packetLength(merge(packetPushedOut, packetPulledOut))"
attr title "outgoing packet lengths"
attr unit b
bin	-inf	0
bin	0	0
bin	1	0
scalar Topology.server.bridging.streamIdentifier.identifier flowOutgoingPacketLengths:sum 0
attr interpolationmode none
attr recordingmode sum
attr source "packetLength(demuxFlow(merge(packetPushedOut, packetPulledOut)))"
attr title "flow specific outgoing packet lengths, sum"
attr unit b
statistic Topology.server.bridging.streamIdentifier.identifier flowOutgoingPacketLengths:histogram
field count 0
field mean -nan
field stddev nan
field min nan
field max nan
field sum 0
field sqrsum 0
attr interpolationmode none
attr recordingmode histogram
attr source "packetLength(demuxFlow(merge(packetPushedOut, packetPulledOut)))"
attr title "flow specific outgoing packet lengths"
attr unit b
bin	-inf	0
bin	0	0
bin	1	0
scalar Topology.server.bridging.streamIdentifier.identifier incomingPackets:count 0
attr recordingmode count
attr source "merge(packetPushedIn, packetPulledIn)"
attr title "incoming packets, count"
attr unit pk
scalar Topology.server.bridging.streamIdentifier.identifier incomingPacketLengths:sum 0
attr interpolationmode none
attr recordingmode sum
attr source "packetLength(merge(packetPushedIn, packetPulledIn))"
attr title "incoming packet lengths, sum"
attr unit b
statistic Topology.server.bridging.streamIdentifier.identifier incomingPacketLengths:histogram
field count 0
field mean -nan
field stddev nan
field min nan
field max nan
field sum 0
field sqrsum 0
attr interpolationmode none
attr recordingmode histogram
attr source "packetLength(merge(packetPushedIn, packetPulledIn))"
attr title "incoming packet lengths"
attr unit b
bin	-inf	0
bin	0	0
bin	1	0
scalar Topology.server.bridging.streamIdentifier.identifier flowIncomingPacketLengths:sum 0
attr interpolationmode none
attr recordingmode sum
attr source "packetLength(demuxFlow(merge(packetPushedIn, packetPulledIn)))"
attr title "flow specific incoming packet lengths, sum"
attr unit b
statistic Topology.server.bridging.streamIdentifier.identifier flowIncomingPacketLengths:histogram
field count 0
field mean -nan
field stddev nan
field min nan
field max nan
field sum 0
field sqrsum 0
attr interpolationmode none
attr recordingmode histogram
attr source "packetLength(demuxFlow(merge(packetPushedIn, packetPulledIn)))"
attr title "flow specific incoming packet lengths"
attr unit b
bin	-inf	0
bin	0	0
bin	1	0
par Topology.server.bridging.streamIdentifier typename "\"inet.protocolelement.redundancy.StreamIdentifierLayer\""
par Topology.server.bridging.streamCoder.upperLayerIn.channel typename "\"ned.IdealChannel\""
par Topology.server.bridging.streamCoder.encoder.out.channel typename "\"ned.IdealChannel\""
par Topology.server.bridging.streamCoder.lowerLayerIn.channel typename "\"ned.IdealChannel\""
par Topology.server.bridging.streamCoder.decoder.out.channel typename "\"ned.IdealChannel\""
par Topology.server.bridging.streamCoder.decoder typename "\"inet.protocolelement.redundancy.StreamDecoder\""
par Topology.server.bridging.streamCoder.decoder displayStringTextFormat "\"processed %p pk (%l)\""
par Topology.server.bridging.streamCoder.decoder interfaceTableModule "\"Topology.server.interfaceTable\""
par Topology.server.bridging.streamCoder.decoder mapping []
attr mutable ""
scalar Topology.server.bridging.streamCoder.decoder outgoingPackets:count 8
attr recordingmode count
attr source "merge(packetPushedOut, packetPulledOut)"
attr title "outgoing packets, count"
attr unit pk
scalar Topology.server.bridging.streamCoder.decoder outgoingPacketLengths:sum 2816
attr interpolationmode none
attr recordingmode sum
attr source "packetLength(merge(packetPushedOut, packetPulledOut))"
attr title "outgoing packet lengths, sum"
attr unit b
statistic Topology.server.bridging.streamCoder.decoder outgoingPacketLengths:histogram
field count 8
field mean 352
field stddev 0
field min 352
field max 352
field sum 2816
field sqrsum 991232
attr interpolationmode none
attr recordingmode histogram
attr source "packetLength(merge(packetPushedOut, packetPulledOut))"
attr title "outgoing packet lengths"
attr unit b
bin	-inf	0
bin	351	0
bin	352	8
bin	353	0
scalar Topology.server.bridging.streamCoder.decoder flowOutgoingPacketLengths:sum 0
attr interpolationmode none
attr recordingmode sum
attr source "packetLength(demuxFlow(merge(packetPushedOut, packetPulledOut)))"
attr title "flow specific outgoing packet lengths, sum"
attr unit b
statistic Topology.server.bridging.streamCoder.decoder flowOutgoingPacketLengths:histogram
field count 0
field mean -nan
field stddev nan
field min nan
field max nan
field sum 0
field sqrsum 0
attr interpolationmode none
attr recordingmode histogram
attr source "packetLength(demuxFlow(merge(packetPushedOut, packetPulledOut)))"
attr title "flow specific outgoing packet lengths"
attr unit b
bin	-inf	0
bin	0	0
bin	1	0
scalar Topology.server.bridging.streamCoder.decoder incomingPackets:count 8
attr recordingmode count
attr source "merge(packetPushedIn, packetPulledIn)"
attr title "incoming packets, count"
attr unit pk
scalar Topology.server.bridging.streamCoder.decoder incomingPacketLengths:sum 2816
attr interpolationmode none
attr recordingmode sum
attr source "packetLength(merge(packetPushedIn, packetPulledIn))"
attr title "incoming packet lengths, sum"
attr unit b
statistic Topology.server.bridging.streamCoder.decoder incomingPacketLengths:histogram
field count 8
field mean 352
field stddev 0
field min 352
field max 352
field sum 2816
field sqrsum 991232
attr interpolationmode none
attr recordingmode histogram
attr source "packetLength(merge(packetPushedIn, packetPulledIn))"
attr title "incoming packet lengths"
attr unit b
bin	-inf	0
bin	351	0
bin	352	8
bin	353	0
scalar Topology.server.bridging.streamCoder.decoder flowIncomingPacketLengths:sum 0
attr interpolationmode none
attr recordingmode sum
attr source "packetLength(demuxFlow(merge(packetPushedIn, packetPulledIn)))"
attr title "flow specific incoming packet lengths, sum"
attr unit b
statistic Topology.server.bridging.streamCoder.decoder flowIncomingPacketLengths:histogram
field count 0
field mean -nan
field stddev nan
field min nan
field max nan
field sum 0
field sqrsum 0
attr interpolationmode none
attr recordingmode histogram
attr source "packetLength(demuxFlow(merge(packetPushedIn, packetPulledIn)))"
attr title "flow specific incoming packet lengths"
attr unit b
bin	-inf	0
bin	0	0
bin	1	0
par Topology.server.bridging.streamCoder.encoder typename "\"inet.protocolelement.redundancy.StreamEncoder\""
par Topology.server.bridging.streamCoder.encoder displayStringTextFormat "\"processed %p pk (%l)\""
par Topology.server.bridging.streamCoder.encoder mapping "[{pcp: 0, stream: \"besteffort\"}, {pcp: 4, stream: \"video\"}]"
attr mutable ""
scalar Topology.server.bridging.streamCoder.encoder outgoingPackets:count 0
attr recordingmode count
attr source "merge(packetPushedOut, packetPulledOut)"
attr title "outgoing packets, count"
attr unit pk
scalar Topology.server.bridging.streamCoder.encoder outgoingPacketLengths:sum 0
attr interpolationmode none
attr recordingmode sum
attr source "packetLength(merge(packetPushedOut, packetPulledOut))"
attr title "outgoing packet lengths, sum"
attr unit b
statistic Topology.server.bridging.streamCoder.encoder outgoingPacketLengths:histogram
field count 0
field mean -nan
field stddev nan
field min nan
field max nan
field sum 0
field sqrsum 0
attr interpolationmode none
attr recordingmode histogram
attr source "packetLength(merge(packetPushedOut, packetPulledOut))"
attr title "outgoing packet lengths"
attr unit b
bin	-inf	0
bin	0	0
bin	1	0
scalar Topology.server.bridging.streamCoder.encoder flowOutgoingPacketLengths:sum 0
attr interpolationmode none
attr recordingmode sum
attr source "packetLength(demuxFlow(merge(packetPushedOut, packetPulledOut)))"
attr title "flow specific outgoing packet lengths, sum"
attr unit b
statistic Topology.server.bridging.streamCoder.encoder flowOutgoingPacketLengths:histogram
field count 0
field mean -nan
field stddev nan
field min nan
field max nan
field sum 0
field sqrsum 0
attr interpolationmode none
attr recordingmode histogram
attr source "packetLength(demuxFlow(merge(packetPushedOut, packetPulledOut)))"
attr title "flow specific outgoing packet lengths"
attr unit b
bin	-inf	0
bin	0	0
bin	1	0
scalar Topology.server.bridging.streamCoder.encoder incomingPackets:count 0
attr recordingmode count
attr source "merge(packetPushedIn, packetPulledIn)"
attr title "incoming packets, count"
attr unit pk
scalar Topology.server.bridging.streamCoder.encoder incomingPacketLengths:sum 0
attr interpolationmode none
attr recordingmode sum
attr source "packetLength(merge(packetPushedIn, packetPulledIn))"
attr title "incoming packet lengths, sum"
attr unit b
statistic Topology.server.bridging.streamCoder.encoder incomingPacketLengths:histogram
field count 0
field mean -nan
field stddev nan
field min nan
field max nan
field sum 0
field sqrsum 0
attr interpolationmode none
attr recordingmode histogram
attr source "packetLength(merge(packetPushedIn, packetPulledIn))"
attr title "incoming packet lengths"
attr unit b
bin	-inf	0
bin	0	0
bin	1	0
scalar Topology.server.bridging.streamCoder.encoder flowIncomingPacketLengths:sum 0
attr interpolationmode none
attr recordingmode sum
attr source "packetLength(demuxFlow(merge(packetPushedIn, packetPulledIn)))"
attr title "flow specific incoming packet lengths, sum"
attr unit b
statistic Topology.server.bridging.streamCoder.encoder flowIncomingPacketLengths:histogram
field count 0
field mean -nan
field stddev nan
field min nan
field max nan
field sum 0
field sqrsum 0
attr interpolationmode none
attr recordingmode histogram
attr source "packetLength(demuxFlow(merge(packetPushedIn, packetPulledIn)))"
attr title "flow specific incoming packet lengths"
attr unit b
bin	-inf	0
bin	0	0
bin	1	0
par Topology.server.bridging.streamCoder typename "\"inet.protocolelement.redundancy.StreamCoderLayer\""
par Topology.server.bridging.streamCoder interfaceTableModule "\"Topology.server.interfaceTable\""
par Topology.server.bridging typename "\"inet.linklayer.ethernet.common.BridgingLayer\""
par Topology.server.bridging macTableModule "\"\""
par Topology.server.bridging interfaceTableModule "\"Topology.server.interfaceTable\""
par Topology.server.bl typename "\"inet.common.MessageDispatcher\""
par Topology.server.bl displayStringTextFormat "\"processed %p pk (%l)\""
par Topology.server.bl forwardServiceRegistration true
par Topology.server.bl forwardProtocolRegistration true
par Topology.server.ethernet.fcsInserter.out.channel typename "\"ned.IdealChannel\""
par Topology.server.ethernet.lowerLayerIn.channel typename "\"ned.IdealChannel\""
par Topology.server.ethernet.upperLayerIn.channel typename "\"ned.IdealChannel\""
par Topology.server.ethernet.macHeaderChecker.out.channel typename "\"ned.IdealChannel\""
par Topology.server.ethernet.macHeaderInserter typename "\"inet.linklayer.ethernet.modular.EthernetMacHeaderInserter\""
par Topology.server.ethernet.macHeaderInserter displayStringTextFormat "\"processed %p pk (%l)\""
par Topology.server.ethernet.macHeaderInserter interfaceTableModule "\"Topology.server.interfaceTable\""
scalar Topology.server.ethernet.macHeaderInserter outgoingPackets:count 0
attr recordingmode count
attr source "merge(packetPushedOut, packetPulledOut)"
attr title "outgoing packets, count"
attr unit pk
scalar Topology.server.ethernet.macHeaderInserter outgoingPacketLengths:sum 0
attr interpolationmode none
attr recordingmode sum
attr source "packetLength(merge(packetPushedOut, packetPulledOut))"
attr title "outgoing packet lengths, sum"
attr unit b
statistic Topology.server.ethernet.macHeaderInserter outgoingPacketLengths:histogram
field count 0
field mean -nan
field stddev nan
field min nan
field max nan
field sum 0
field sqrsum 0
attr interpolationmode none
attr recordingmode histogram
attr source "packetLength(merge(packetPushedOut, packetPulledOut))"
attr title "outgoing packet lengths"
attr unit b
bin	-inf	0
bin	0	0
bin	1	0
scalar Topology.server.ethernet.macHeaderInserter flowOutgoingPacketLengths:sum 0
attr interpolationmode none
attr recordingmode sum
attr source "packetLength(demuxFlow(merge(packetPushedOut, packetPulledOut)))"
attr title "flow specific outgoing packet lengths, sum"
attr unit b
statistic Topology.server.ethernet.macHeaderInserter flowOutgoingPacketLengths:histogram
field count 0
field mean -nan
field stddev nan
field min nan
field max nan
field sum 0
field sqrsum 0
attr interpolationmode none
attr recordingmode histogram
attr source "packetLength(demuxFlow(merge(packetPushedOut, packetPulledOut)))"
attr title "flow specific outgoing packet lengths"
attr unit b
bin	-inf	0
bin	0	0
bin	1	0
scalar Topology.server.ethernet.macHeaderInserter incomingPackets:count 0
attr recordingmode count
attr source "merge(packetPushedIn, packetPulledIn)"
attr title "incoming packets, count"
attr unit pk
scalar Topology.server.ethernet.macHeaderInserter incomingPacketLengths:sum 0
attr interpolationmode none
attr recordingmode sum
attr source "packetLength(merge(packetPushedIn, packetPulledIn))"
attr title "incoming packet lengths, sum"
attr unit b
statistic Topology.server.ethernet.macHeaderInserter incomingPacketLengths:histogram
field count 0
field mean -nan
field stddev nan
field min nan
field max nan
field sum 0
field sqrsum 0
attr interpolationmode none
attr recordingmode histogram
attr source "packetLength(merge(packetPushedIn, packetPulledIn))"
attr title "incoming packet lengths"
attr unit b
bin	-inf	0
bin	0	0
bin	1	0
scalar Topology.server.ethernet.macHeaderInserter flowIncomingPacketLengths:sum 0
attr interpolationmode none
attr recordingmode sum
attr source "packetLength(demuxFlow(merge(packetPushedIn, packetPulledIn)))"
attr title "flow specific incoming packet lengths, sum"
attr unit b
statistic Topology.server.ethernet.macHeaderInserter flowIncomingPacketLengths:histogram
field count 0
field mean -nan
field stddev nan
field min nan
field max nan
field sum 0
field sqrsum 0
attr interpolationmode none
attr recordingmode histogram
attr source "packetLength(demuxFlow(merge(packetPushedIn, packetPulledIn)))"
attr title "flow specific incoming packet lengths"
attr unit b
bin	-inf	0
bin	0	0
bin	1	0
par Topology.server.ethernet.paddingInserter typename "\"inet.protocolelement.common.PaddingInserter\""
par Topology.server.ethernet.paddingInserter displayStringTextFormat "\"processed %p pk (%l)\""
par Topology.server.ethernet.paddingInserter minLength 480b
attr unit b
par Topology.server.ethernet.paddingInserter roundingLength 8b
attr unit b
par Topology.server.ethernet.paddingInserter insertionPosition "\"back\""
attr enum front,back
scalar Topology.server.ethernet.paddingInserter outgoingPackets:count 0
attr recordingmode count
attr source "merge(packetPushedOut, packetPulledOut)"
attr title "outgoing packets, count"
attr unit pk
scalar Topology.server.ethernet.paddingInserter outgoingPacketLengths:sum 0
attr interpolationmode none
attr recordingmode sum
attr source "packetLength(merge(packetPushedOut, packetPulledOut))"
attr title "outgoing packet lengths, sum"
attr unit b
statistic Topology.server.ethernet.paddingInserter outgoingPacketLengths:histogram
field count 0
field mean -nan
field stddev nan
field min nan
field max nan
field sum 0
field sqrsum 0
attr interpolationmode none
attr recordingmode histogram
attr source "packetLength(merge(packetPushedOut, packetPulledOut))"
attr title "outgoing packet lengths"
attr unit b
bin	-inf	0
bin	0	0
bin	1	0
scalar Topology.server.ethernet.paddingInserter flowOutgoingPacketLengths:sum 0
attr interpolationmode none
attr recordingmode sum
attr source "packetLength(demuxFlow(merge(packetPushedOut, packetPulledOut)))"
attr title "flow specific outgoing packet lengths, sum"
attr unit b
statistic Topology.server.ethernet.paddingInserter flowOutgoingPacketLengths:histogram
field count 0
field mean -nan
field stddev nan
field min nan
field max nan
field sum 0
field sqrsum 0
attr interpolationmode none
attr recordingmode histogram
attr source "packetLength(demuxFlow(merge(packetPushedOut, packetPulledOut)))"
attr title "flow specific outgoing packet lengths"
attr unit b
bin	-inf	0
bin	0	0
bin	1	0
scalar Topology.server.ethernet.paddingInserter incomingPackets:count 0
attr recordingmode count
attr source "merge(packetPushedIn, packetPulledIn)"
attr title "incoming packets, count"
attr unit pk
scalar Topology.server.ethernet.paddingInserter incomingPacketLengths:sum 0
attr interpolationmode none
attr recordingmode sum
attr source "packetLength(merge(packetPushedIn, packetPulledIn))"
attr title "incoming packet lengths, sum"
attr unit b
statistic Topology.server.ethernet.paddingInserter incomingPacketLengths:histogram
field count 0
field mean -nan
field stddev nan
field min nan
field max nan
field sum 0
field sqrsum 0
attr interpolationmode none
attr recordingmode histogram
attr source "packetLength(merge(packetPushedIn, packetPulledIn))"
attr title "incoming packet lengths"
attr unit b
bin	-inf	0
bin	0	0
bin	1	0
scalar Topology.server.ethernet.paddingInserter flowIncomingPacketLengths:sum 0
attr interpolationmode none
attr recordingmode sum
attr source "packetLength(demuxFlow(merge(packetPushedIn, packetPulledIn)))"
attr title "flow specific incoming packet lengths, sum"
attr unit b
statistic Topology.server.ethernet.paddingInserter flowIncomingPacketLengths:histogram
field count 0
field mean -nan
field stddev nan
field min nan
field max nan
field sum 0
field sqrsum 0
attr interpolationmode none
attr recordingmode histogram
attr source "packetLength(demuxFlow(merge(packetPushedIn, packetPulledIn)))"
attr title "flow specific incoming packet lengths"
attr unit b
bin	-inf	0
bin	0	0
bin	1	0
par Topology.server.ethernet.fcsInserter typename "\"inet.linklayer.ethernet.modular.EthernetFcsInserter\""
par Topology.server.ethernet.fcsInserter displayStringTextFormat "\"processed %p pk (%l)\""
par Topology.server.ethernet.fcsInserter fcsMode "\"declared\""
attr enum disabled,declared,computed
scalar Topology.server.ethernet.fcsInserter outgoingPackets:count 0
attr recordingmode count
attr source "merge(packetPushedOut, packetPulledOut)"
attr title "outgoing packets, count"
attr unit pk
scalar Topology.server.ethernet.fcsInserter outgoingPacketLengths:sum 0
attr interpolationmode none
attr recordingmode sum
attr source "packetLength(merge(packetPushedOut, packetPulledOut))"
attr title "outgoing packet lengths, sum"
attr unit b
statistic Topology.server.ethernet.fcsInserter outgoingPacketLengths:histogram
field count 0
field mean -nan
field stddev nan
field min nan
field max nan
field sum 0
field sqrsum 0
attr interpolationmode none
attr recordingmode histogram
attr source "packetLength(merge(packetPushedOut, packetPulledOut))"
attr title "outgoing packet lengths"
attr unit b
bin	-inf	0
bin	0	0
bin	1	0
scalar Topology.server.ethernet.fcsInserter flowOutgoingPacketLengths:sum 0
attr interpolationmode none
attr recordingmode sum
attr source "packetLength(demuxFlow(merge(packetPushedOut, packetPulledOut)))"
attr title "flow specific outgoing packet lengths, sum"
attr unit b
statistic Topology.server.ethernet.fcsInserter flowOutgoingPacketLengths:histogram
field count 0
field mean -nan
field stddev nan
field min nan
field max nan
field sum 0
field sqrsum 0
attr interpolationmode none
attr recordingmode histogram
attr source "packetLength(demuxFlow(merge(packetPushedOut, packetPulledOut)))"
attr title "flow specific outgoing packet lengths"
attr unit b
bin	-inf	0
bin	0	0
bin	1	0
scalar Topology.server.ethernet.fcsInserter incomingPackets:count 0
attr recordingmode count
attr source "merge(packetPushedIn, packetPulledIn)"
attr title "incoming packets, count"
attr unit pk
scalar Topology.server.ethernet.fcsInserter incomingPacketLengths:sum 0
attr interpolationmode none
attr recordingmode sum
attr source "packetLength(merge(packetPushedIn, packetPulledIn))"
attr title "incoming packet lengths, sum"
attr unit b
statistic Topology.server.ethernet.fcsInserter incomingPacketLengths:histogram
field count 0
field mean -nan
field stddev nan
field min nan
field max nan
field sum 0
field sqrsum 0
attr interpolationmode none
attr recordingmode histogram
attr source "packetLength(merge(packetPushedIn, packetPulledIn))"
attr title "incoming packet lengths"
attr unit b
bin	-inf	0
bin	0	0
bin	1	0
scalar Topology.server.ethernet.fcsInserter flowIncomingPacketLengths:sum 0
attr interpolationmode none
attr recordingmode sum
attr source "packetLength(demuxFlow(merge(packetPushedIn, packetPulledIn)))"
attr title "flow specific incoming packet lengths, sum"
attr unit b
statistic Topology.server.ethernet.fcsInserter flowIncomingPacketLengths:histogram
field count 0
field mean -nan
field stddev nan
field min nan
field max nan
field sum 0
field sqrsum 0
attr interpolationmode none
attr recordingmode histogram
attr source "packetLength(demuxFlow(merge(packetPushedIn, packetPulledIn)))"
attr title "flow specific incoming packet lengths"
attr unit b
bin	-inf	0
bin	0	0
bin	1	0
par Topology.server.ethernet.macHeaderChecker typename "\"inet.linklayer.ethernet.modular.EthernetMacHeaderChecker\""
par Topology.server.ethernet.macHeaderChecker displayStringTextFormat "\"dropped %d/%p pk (%k/%l)\""
par Topology.server.ethernet.macHeaderChecker backpressure false
par Topology.server.ethernet.macHeaderChecker interfaceTableModule "\"Topology.server.interfaceTable\""
par Topology.server.ethernet.macHeaderChecker promiscuous false
scalar Topology.server.ethernet.macHeaderChecker outgoingPackets:count 8
attr recordingmode count
attr source "merge(packetPushedOut, packetPulledOut)"
attr title "outgoing packets, count"
attr unit pk
scalar Topology.server.ethernet.macHeaderChecker outgoingPacketLengths:sum 3072
attr interpolationmode none
attr recordingmode sum
attr source "packetLength(merge(packetPushedOut, packetPulledOut))"
attr title "outgoing packet lengths, sum"
attr unit b
statistic Topology.server.ethernet.macHeaderChecker outgoingPacketLengths:histogram
field count 8
field mean 384
field stddev 0
field min 384
field max 384
field sum 3072
field sqrsum 1179648
attr interpolationmode none
attr recordingmode histogram
attr source "packetLength(merge(packetPushedOut, packetPulledOut))"
attr title "outgoing packet lengths"
attr unit b
bin	-inf	0
bin	383	0
bin	384	8
bin	385	0
scalar Topology.server.ethernet.macHeaderChecker flowOutgoingPacketLengths:sum 0
attr interpolationmode none
attr recordingmode sum
attr source "packetLength(demuxFlow(merge(packetPushedOut, packetPulledOut)))"
attr title "flow specific outgoing packet lengths, sum"
attr unit b
statistic Topology.server.ethernet.macHeaderChecker flowOutgoingPacketLengths:histogram
field count 0
field mean -nan
field stddev nan
field min nan
field max nan
field sum 0
field sqrsum 0
attr interpolationmode none
attr recordingmode histogram
attr source "packetLength(demuxFlow(merge(packetPushedOut, packetPulledOut)))"
attr title "flow specific outgoing packet lengths"
attr unit b
bin	-inf	0
bin	0	0
bin	1	0
scalar Topology.server.ethernet.macHeaderChecker incomingPackets:count 8
attr recordingmode count
attr source "merge(packetPushedIn, packetPulledIn)"
attr title "incoming packets, count"
attr unit pk
scalar Topology.server.ethernet.macHeaderChecker incomingPacketLengths:sum 3968
attr interpolationmode none
attr recordingmode sum
attr source "packetLength(merge(packetPushedIn, packetPulledIn))"
attr title "incoming packet lengths, sum"
attr unit b
statistic Topology.server.ethernet.macHeaderChecker incomingPacketLengths:histogram
field count 8
field mean 496
field stddev 0
field min 496
field max 496
field sum 3968
field sqrsum 1968128
attr interpolationmode none
attr recordingmode histogram
attr source "packetLength(merge(packetPushedIn, packetPulledIn))"
attr title "incoming packet lengths"
attr unit b
bin	-inf	0
bin	495	0
bin	496	8
bin	497	0
scalar Topology.server.ethernet.macHeaderChecker flowIncomingPacketLengths:sum 0
attr interpolationmode none
attr recordingmode sum
attr source "packetLength(demuxFlow(merge(packetPushedIn, packetPulledIn)))"
attr title "flow specific incoming packet lengths, sum"
attr unit b
statistic Topology.server.ethernet.macHeaderChecker flowIncomingPacketLengths:histogram
field count 0
field mean -nan
field stddev nan
field min nan
field max nan
field sum 0
field sqrsum 0
attr interpolationmode none
attr recordingmode histogram
attr source "packetLength(demuxFlow(merge(packetPushedIn, packetPulledIn)))"
attr title "flow specific incoming packet lengths"
attr unit b
bin	-inf	0
bin	0	0
bin	1	0
scalar Topology.server.ethernet.macHeaderChecker droppedPackets:count 0
attr recordingmode count
attr source packetDropped
attr title "dropped packets, count"
attr unit pk
scalar Topology.server.ethernet.macHeaderChecker droppedPacketLengths:sum 0
attr interpolationmode none
attr recordingmode sum
attr source packetLength(packetDropped)
attr title "dropped packet lengths, sum"
attr unit b
statistic Topology.server.ethernet.macHeaderChecker droppedPacketLengths:histogram
field count 0
field mean -nan
field stddev nan
field min nan
field max nan
field sum 0
field sqrsum 0
attr interpolationmode none
attr recordingmode histogram
attr source packetLength(packetDropped)
attr title "dropped packet lengths"
attr unit b
bin	-inf	0
bin	0	0
bin	1	0
scalar Topology.server.ethernet.macHeaderChecker flowDroppedPacketLengths:sum 0
attr interpolationmode none
attr recordingmode sum
attr source packetLength(demuxFlow(packetDropped))
attr title "flow specific dropped packet lengths, sum"
attr unit b
statistic Topology.server.ethernet.macHeaderChecker flowDroppedPacketLengths:histogram
field count 0
field mean -nan
field stddev nan
field min nan
field max nan
field sum 0
field sqrsum 0
attr interpolationmode none
attr recordingmode histogram
attr source packetLength(demuxFlow(packetDropped))
attr title "flow specific dropped packet lengths"
attr unit b
bin	-inf	0
bin	0	0
bin	1	0
par Topology.server.ethernet.fcsChecker typename "\"inet.linklayer.ethernet.modular.EthernetFcsChecker\""
par Topology.server.ethernet.fcsChecker displayStringTextFormat "\"dropped %d/%p pk (%k/%l)\""
par Topology.server.ethernet.fcsChecker backpressure false
par Topology.server.ethernet.fcsChecker popFcs true
scalar Topology.server.ethernet.fcsChecker outgoingPackets:count 8
attr recordingmode count
attr source "merge(packetPushedOut, packetPulledOut)"
attr title "outgoing packets, count"
attr unit pk
scalar Topology.server.ethernet.fcsChecker outgoingPacketLengths:sum 3968
attr interpolationmode none
attr recordingmode sum
attr source "packetLength(merge(packetPushedOut, packetPulledOut))"
attr title "outgoing packet lengths, sum"
attr unit b
statistic Topology.server.ethernet.fcsChecker outgoingPacketLengths:histogram
field count 8
field mean 496
field stddev 0
field min 496
field max 496
field sum 3968
field sqrsum 1968128
attr interpolationmode none
attr recordingmode histogram
attr source "packetLength(merge(packetPushedOut, packetPulledOut))"
attr title "outgoing packet lengths"
attr unit b
bin	-inf	0
bin	495	0
bin	496	8
bin	497	0
scalar Topology.server.ethernet.fcsChecker flowOutgoingPacketLengths:sum 0
attr interpolationmode none
attr recordingmode sum
attr source "packetLength(demuxFlow(merge(packetPushedOut, packetPulledOut)))"
attr title "flow specific outgoing packet lengths, sum"
attr unit b
statistic Topology.server.ethernet.fcsChecker flowOutgoingPacketLengths:histogram
field count 0
field mean -nan
field stddev nan
field min nan
field max nan
field sum 0
field sqrsum 0
attr interpolationmode none
attr recordingmode histogram
attr source "packetLength(demuxFlow(merge(packetPushedOut, packetPulledOut)))"
attr title "flow specific outgoing packet lengths"
attr unit b
bin	-inf	0
bin	0	0
bin	1	0
scalar Topology.server.ethernet.fcsChecker incomingPackets:count 8
attr recordingmode count
attr source "merge(packetPushedIn, packetPulledIn)"
attr title "incoming packets, count"
attr unit pk
scalar Topology.server.ethernet.fcsChecker incomingPacketLengths:sum 4224
attr interpolationmode none
attr recordingmode sum
attr source "packetLength(merge(packetPushedIn, packetPulledIn))"
attr title "incoming packet lengths, sum"
attr unit b
statistic Topology.server.ethernet.fcsChecker incomingPacketLengths:histogram
field count 8
field mean 528
field stddev 0
field min 528
field max 528
field sum 4224
field sqrsum 2230272
attr interpolationmode none
attr recordingmode histogram
attr source "packetLength(merge(packetPushedIn, packetPulledIn))"
attr title "incoming packet lengths"
attr unit b
bin	-inf	0
bin	527	0
bin	528	8
bin	529	0
scalar Topology.server.ethernet.fcsChecker flowIncomingPacketLengths:sum 0
attr interpolationmode none
attr recordingmode sum
attr source "packetLength(demuxFlow(merge(packetPushedIn, packetPulledIn)))"
attr title "flow specific incoming packet lengths, sum"
attr unit b
statistic Topology.server.ethernet.fcsChecker flowIncomingPacketLengths:histogram
field count 0
field mean -nan
field stddev nan
field min nan
field max nan
field sum 0
field sqrsum 0
attr interpolationmode none
attr recordingmode histogram
attr source "packetLength(demuxFlow(merge(packetPushedIn, packetPulledIn)))"
attr title "flow specific incoming packet lengths"
attr unit b
bin	-inf	0
bin	0	0
bin	1	0
scalar Topology.server.ethernet.fcsChecker droppedPackets:count 0
attr recordingmode count
attr source packetDropped
attr title "dropped packets, count"
attr unit pk
scalar Topology.server.ethernet.fcsChecker droppedPacketLengths:sum 0
attr interpolationmode none
attr recordingmode sum
attr source packetLength(packetDropped)
attr title "dropped packet lengths, sum"
attr unit b
statistic Topology.server.ethernet.fcsChecker droppedPacketLengths:histogram
field count 0
field mean -nan
field stddev nan
field min nan
field max nan
field sum 0
field sqrsum 0
attr interpolationmode none
attr recordingmode histogram
attr source packetLength(packetDropped)
attr title "dropped packet lengths"
attr unit b
bin	-inf	0
bin	0	0
bin	1	0
scalar Topology.server.ethernet.fcsChecker flowDroppedPacketLengths:sum 0
attr interpolationmode none
attr recordingmode sum
attr source packetLength(demuxFlow(packetDropped))
attr title "flow specific dropped packet lengths, sum"
attr unit b
statistic Topology.server.ethernet.fcsChecker flowDroppedPacketLengths:histogram
field count 0
field mean -nan
field stddev nan
field min nan
field max nan
field sum 0
field sqrsum 0
attr interpolationmode none
attr recordingmode histogram
attr source packetLength(demuxFlow(packetDropped))
attr title "flow specific dropped packet lengths"
attr unit b
bin	-inf	0
bin	0	0
bin	1	0
par Topology.server.ethernet typename "\"inet.linklayer.ethernet.modular.EthernetLayer\""
par Topology.server.ethernet interfaceTableModule "\"Topology.server.interfaceTable\""
par Topology.server.ethernet hasSocketSupport false
par Topology.server.ieee8021q.qTagHeaderInserter.out.channel typename "\"ned.IdealChannel\""
par Topology.server.ieee8021q.lowerLayerIn.channel typename "\"ned.IdealChannel\""
par Topology.server.ieee8021q.upperLayerIn.channel typename "\"ned.IdealChannel\""
par Topology.server.ieee8021q.qTagHeaderChecker.out.channel typename "\"ned.IdealChannel\""
par Topology.server.ieee8021q.qTagHeaderInserter typename "\"inet.linklayer.ieee8021q.Ieee8021qTagEpdHeaderInserter\""
par Topology.server.ieee8021q.qTagHeaderInserter displayStringTextFormat "\"processed %p pk (%l)\""
par Topology.server.ieee8021q.qTagHeaderInserter vlanTagType "\"c\""
attr enum c,s
par Topology.server.ieee8021q.qTagHeaderInserter nextProtocol "\"ethernetmac\""
par Topology.server.ieee8021q.qTagHeaderInserter defaultVlanId -1
par Topology.server.ieee8021q.qTagHeaderInserter defaultPcp -1
par Topology.server.ieee8021q.qTagHeaderInserter defaultUserPriority -1
par Topology.server.ieee8021q.qTagHeaderInserter defaultDropEligible -1
scalar Topology.server.ieee8021q.qTagHeaderInserter outgoingPackets:count 0
attr recordingmode count
attr source "merge(packetPushedOut, packetPulledOut)"
attr title "outgoing packets, count"
attr unit pk
scalar Topology.server.ieee8021q.qTagHeaderInserter outgoingPacketLengths:sum 0
attr interpolationmode none
attr recordingmode sum
attr source "packetLength(merge(packetPushedOut, packetPulledOut))"
attr title "outgoing packet lengths, sum"
attr unit b
statistic Topology.server.ieee8021q.qTagHeaderInserter outgoingPacketLengths:histogram
field count 0
field mean -nan
field stddev nan
field min nan
field max nan
field sum 0
field sqrsum 0
attr interpolationmode none
attr recordingmode histogram
attr source "packetLength(merge(packetPushedOut, packetPulledOut))"
attr title "outgoing packet lengths"
attr unit b
bin	-inf	0
bin	0	0
bin	1	0
scalar Topology.server.ieee8021q.qTagHeaderInserter flowOutgoingPacketLengths:sum 0
attr interpolationmode none
attr recordingmode sum
attr source "packetLength(demuxFlow(merge(packetPushedOut, packetPulledOut)))"
attr title "flow specific outgoing packet lengths, sum"
attr unit b
statistic Topology.server.ieee8021q.qTagHeaderInserter flowOutgoingPacketLengths:histogram
field count 0
field mean -nan
field stddev nan
field min nan
field max nan
field sum 0
field sqrsum 0
attr interpolationmode none
attr recordingmode histogram
attr source "packetLength(demuxFlow(merge(packetPushedOut, packetPulledOut)))"
attr title "flow specific outgoing packet lengths"
attr unit b
bin	-inf	0
bin	0	0
bin	1	0
scalar Topology.server.ieee8021q.qTagHeaderInserter incomingPackets:count 0
attr recordingmode count
attr source "merge(packetPushedIn, packetPulledIn)"
attr title "incoming packets, count"
attr unit pk
scalar Topology.server.ieee8021q.qTagHeaderInserter incomingPacketLengths:sum 0
attr interpolationmode none
attr recordingmode sum
attr source "packetLength(merge(packetPushedIn, packetPulledIn))"
attr title "incoming packet lengths, sum"
attr unit b
statistic Topology.server.ieee8021q.qTagHeaderInserter incomingPacketLengths:histogram
field count 0
field mean -nan
field stddev nan
field min nan
field max nan
field sum 0
field sqrsum 0
attr interpolationmode none
attr recordingmode histogram
attr source "packetLength(merge(packetPushedIn, packetPulledIn))"
attr title "incoming packet lengths"
attr unit b
bin	-inf	0
bin	0	0
bin	1	0
scalar Topology.server.ieee8021q.qTagHeaderInserter flowIncomingPacketLengths:sum 0
attr interpolationmode none
attr recordingmode sum
attr source "packetLength(demuxFlow(merge(packetPushedIn, packetPulledIn)))"
attr title "flow specific incoming packet lengths, sum"
attr unit b
statistic Topology.server.ieee8021q.qTagHeaderInserter flowIncomingPacketLengths:histogram
field count 0
field mean -nan
field stddev nan
field min nan
field max nan
field sum 0
field sqrsum 0
attr interpolationmode none
attr recordingmode histogram
attr source "packetLength(demuxFlow(merge(packetPushedIn, packetPulledIn)))"
attr title "flow specific incoming packet lengths"
attr unit b
bin	-inf	0
bin	0	0
bin	1	0
par Topology.server.ieee8021q.qTagHeaderChecker typename "\"inet.linklayer.ieee8021q.Ieee8021qTagEpdHeaderChecker\""
par Topology.server.ieee8021q.qTagHeaderChecker displayStringTextFormat "\"dropped %d/%p pk (%k/%l)\""
par Topology.server.ieee8021q.qTagHeaderChecker backpressure false
par Topology.server.ieee8021q.qTagHeaderChecker vlanTagType "\"c\""
attr enum c,s
par Topology.server.ieee8021q.qTagHeaderChecker vlanIdFilter []
attr mutable ""
scalar Topology.server.ieee8021q.qTagHeaderChecker outgoingPackets:count 8
attr recordingmode count
attr source "merge(packetPushedOut, packetPulledOut)"
attr title "outgoing packets, count"
attr unit pk
scalar Topology.server.ieee8021q.qTagHeaderChecker outgoingPacketLengths:sum 2816
attr interpolationmode none
attr recordingmode sum
attr source "packetLength(merge(packetPushedOut, packetPulledOut))"
attr title "outgoing packet lengths, sum"
attr unit b
statistic Topology.server.ieee8021q.qTagHeaderChecker outgoingPacketLengths:histogram
field count 8
field mean 352
field stddev 0
field min 352
field max 352
field sum 2816
field sqrsum 991232
attr interpolationmode none
attr recordingmode histogram
attr source "packetLength(merge(packetPushedOut, packetPulledOut))"
attr title "outgoing packet lengths"
attr unit b
bin	-inf	0
bin	351	0
bin	352	8
bin	353	0
scalar Topology.server.ieee8021q.qTagHeaderChecker flowOutgoingPacketLengths:sum 0
attr interpolationmode none
attr recordingmode sum
attr source "packetLength(demuxFlow(merge(packetPushedOut, packetPulledOut)))"
attr title "flow specific outgoing packet lengths, sum"
attr unit b
statistic Topology.server.ieee8021q.qTagHeaderChecker flowOutgoingPacketLengths:histogram
field count 0
field mean -nan
field stddev nan
field min nan
field max nan
field sum 0
field sqrsum 0
attr interpolationmode none
attr recordingmode histogram
attr source "packetLength(demuxFlow(merge(packetPushedOut, packetPulledOut)))"
attr title "flow specific outgoing packet lengths"
attr unit b
bin	-inf	0
bin	0	0
bin	1	0
scalar Topology.server.ieee8021q.qTagHeaderChecker incomingPackets:count 8
attr recordingmode count
attr source "merge(packetPushedIn, packetPulledIn)"
attr title "incoming packets, count"
attr unit pk
scalar Topology.server.ieee8021q.qTagHeaderChecker incomingPacketLengths:sum 3072
attr interpolationmode none
attr recordingmode sum
attr source "packetLength(merge(packetPushedIn, packetPulledIn))"
attr title "incoming packet lengths, sum"
attr unit b
statistic Topology.server.ieee8021q.qTagHeaderChecker incomingPacketLengths:histogram
field count 8
field mean 384
field stddev 0
field min 384
field max 384
field sum 3072
field sqrsum 1179648
attr interpolationmode none
attr recordingmode histogram
attr source "packetLength(merge(packetPushedIn, packetPulledIn))"
attr title "incoming packet lengths"
attr unit b
bin	-inf	0
bin	383	0
bin	384	8
bin	385	0
scalar Topology.server.ieee8021q.qTagHeaderChecker flowIncomingPacketLengths:sum 0
attr interpolationmode none
attr recordingmode sum
attr source "packetLength(demuxFlow(merge(packetPushedIn, packetPulledIn)))"
attr title "flow specific incoming packet lengths, sum"
attr unit b
statistic Topology.server.ieee8021q.qTagHeaderChecker flowIncomingPacketLengths:histogram
field count 0
field mean -nan
field stddev nan
field min nan
field max nan
field sum 0
field sqrsum 0
attr interpolationmode none
attr recordingmode histogram
attr source "packetLength(demuxFlow(merge(packetPushedIn, packetPulledIn)))"
attr title "flow specific incoming packet lengths"
attr unit b
bin	-inf	0
bin	0	0
bin	1	0
scalar Topology.server.ieee8021q.qTagHeaderChecker droppedPackets:count 0
attr recordingmode count
attr source packetDropped
attr title "dropped packets, count"
attr unit pk
scalar Topology.server.ieee8021q.qTagHeaderChecker droppedPacketLengths:sum 0
attr interpolationmode none
attr recordingmode sum
attr source packetLength(packetDropped)
attr title "dropped packet lengths, sum"
attr unit b
statistic Topology.server.ieee8021q.qTagHeaderChecker droppedPacketLengths:histogram
field count 0
field mean -nan
field stddev nan
field min nan
field max nan
field sum 0
field sqrsum 0
attr interpolationmode none
attr recordingmode histogram
attr source packetLength(packetDropped)
attr title "dropped packet lengths"
attr unit b
bin	-inf	0
bin	0	0
bin	1	0
scalar Topology.server.ieee8021q.qTagHeaderChecker flowDroppedPacketLengths:sum 0
attr interpolationmode none
attr recordingmode sum
attr source packetLength(demuxFlow(packetDropped))
attr title "flow specific dropped packet lengths, sum"
attr unit b
statistic Topology.server.ieee8021q.qTagHeaderChecker flowDroppedPacketLengths:histogram
field count 0
field mean -nan
field stddev nan
field min nan
field max nan
field sum 0
field sqrsum 0
attr interpolationmode none
attr recordingmode histogram
attr source packetLength(demuxFlow(packetDropped))
attr title "flow specific dropped packet lengths"
attr unit b
bin	-inf	0
bin	0	0
bin	1	0
par Topology.server.ieee8021q typename "\"inet.linklayer.ieee8021q.Ieee8021qProtocol\""
par Topology.server.ieee8021q vlanTagType "\"c\""
par Topology.server.ieee8021q hasSocketSupport false
par Topology.server.li typename "\"inet.common.MessageDispatcher\""
par Topology.server.li displayStringTextFormat "\"processed %p pk (%l)\""
par Topology.server.li forwardServiceRegistration true
par Topology.server.li forwardProtocolRegistration true
par Topology.server.lo[0].upperLayerIn.channel typename "\"ned.IdealChannel\""
par Topology.server.lo[0].lo.upperLayerOut.channel typename "\"ned.IdealChannel\""
par Topology.server.lo[0].lo typename "\"inet.linklayer.loopback.Loopback\""
par Topology.server.lo[0].lo interfaceTableModule "\"Topology.server.interfaceTable\""
par Topology.server.lo[0].lo mtu 4470B
attr unit B
scalar Topology.server.lo[0].lo rcvdPkFromHl:count 0
attr interpolationmode none
attr recordingmode count
attr source packetReceivedFromUpper
attr title "packets received from higher layer, count"
scalar Topology.server.lo[0].lo rcvdPkFromHl:sum(packetBytes) 0
attr interpolationmode none
attr recordingmode sum(packetBytes)
attr source packetReceivedFromUpper
attr title "packets received from higher layer, sum(packetBytes)"
scalar Topology.server.lo[0].lo passedUpPk:count 0
attr interpolationmode none
attr recordingmode count
attr source packetSentToUpper
attr title "packets passed to higher layer, count"
scalar Topology.server.lo[0].lo passedUpPk:sum(packetBytes) 0
attr interpolationmode none
attr recordingmode sum(packetBytes)
attr source packetSentToUpper
attr title "packets passed to higher layer, sum(packetBytes)"
[...]
par Topology.HVACClient[7].tcp timestampSupport false
par Topology.HVACClient[7].tcp mss 536
par Topology.HVACClient[7].tcp msl 120s
attr unit s
par Topology.HVACClient[7].tcp tcpAlgorithmClass "\"TcpReno\""
attr enum TcpVegas,TcpWestwood,TcpNewReno,TcpReno,TcpTahoe,TcpNoCongestionControl
par Topology.HVACClient[7].tcp useDataNotification false
par Topology.HVACClient[7].tcp dupthresh 3
par Topology.HVACClient[7].tcp initialSsthresh 4294967295
par Topology.HVACClient[7].tcp stopOperationExtraTime 0s
attr unit s
par Topology.HVACClient[7].tcp stopOperationTimeout 2s
attr unit s
par Topology.HVACClient[7].tcp ecnWillingness false
par Topology.HVACClient[7].tcp dctcpGamma 0.0625
par Topology.HVACClient[7].tn typename "\"inet.common.MessageDispatcher\""
par Topology.HVACClient[7].tn displayStringTextFormat "\"processed %p pk (%l)\""
par Topology.HVACClient[7].tn forwardServiceRegistration true
par Topology.HVACClient[7].tn forwardProtocolRegistration true
par Topology.HVACClient[7].app[0].source typename "\"inet.queueing.source.ActivePacketSource\""
par Topology.HVACClient[7].app[0].source displayStringTextFormat "\"created %p pk (%l)\""
par Topology.HVACClient[7].app[0].source packetNameFormat "\"%a-%c\""
par Topology.HVACClient[7].app[0].source packetRepresentation "\"byteCount\""
attr units bitCount,bits,byteCount,bytes,applicationPacket
par Topology.HVACClient[7].app[0].source packetProtocol "\"unknown\""
par Topology.HVACClient[7].app[0].source packetLength 128b
attr unit b
par Topology.HVACClient[7].app[0].source packetData -1
par Topology.HVACClient[7].app[0].source attachCreationTimeTag true
par Topology.HVACClient[7].app[0].source attachIdentityTag true
par Topology.HVACClient[7].app[0].source attachDirectionTag true
par Topology.HVACClient[7].app[0].source clockModule "\"\""
par Topology.HVACClient[7].app[0].source initialProductionOffset 0s
attr mutable ""
attr unit s
par Topology.HVACClient[7].app[0].source productionInterval 0.002s
attr unit s
par Topology.HVACClient[7].app[0].source scheduleForAbsoluteTime true
scalar Topology.HVACClient[7].app[0].source packets:count 1
attr moduledisplaypath Topology.HVACClient[7].besteffort.source
attr recordingmode count
attr source packetPushed
attr title "packets, count"
attr unit pk
scalar Topology.HVACClient[7].app[0].source packetLengths:sum 128
attr interpolationmode none
attr moduledisplaypath Topology.HVACClient[7].besteffort.source
attr recordingmode sum
attr source packetLength(packetPushed)
attr title "packet lengths, sum"
attr unit b
statistic Topology.HVACClient[7].app[0].source packetLengths:histogram
field count 1
field mean 128
field stddev nan
field min 128
field max 128
field sum 128
field sqrsum 16384
attr interpolationmode none
attr moduledisplaypath Topology.HVACClient[7].besteffort.source
attr recordingmode histogram
attr source packetLength(packetPushed)
attr title "packet lengths"
attr unit b
bin	-inf	0
bin	127	0
bin	128	1
bin	129	0
par Topology.HVACClient[7].app[0].io typename "\"inet.applications.udpapp.UdpSocketIo\""
par Topology.HVACClient[7].app[0].io interfaceTableModule "\"Topology.HVACClient[7].app[0].interfaceTable\""
par Topology.HVACClient[7].app[0].io localAddress "\"\""
par Topology.HVACClient[7].app[0].io localPort 1002
par Topology.HVACClient[7].app[0].io destAddress "\"server\""
par Topology.HVACClient[7].app[0].io destPort 1000
par Topology.HVACClient[7].app[0].io timeToLive -1
par Topology.HVACClient[7].app[0].io dontFragment false
par Topology.HVACClient[7].app[0].io dscp -1
par Topology.HVACClient[7].app[0].io tos -1
par Topology.HVACClient[7].app[0].io multicastInterface "\"\""
par Topology.HVACClient[7].app[0].io multicastAddresses []
par Topology.HVACClient[7].app[0].io receiveBroadcast false
par Topology.HVACClient[7].app[0].io joinLocalMulticastGroups false
par Topology.HVACClient[7].app[0].io stopOperationExtraTime -1s
attr unit s
par Topology.HVACClient[7].app[0].io stopOperationTimeout 2s
attr unit s
scalar Topology.HVACClient[7].app[0].io "packets sent" 1
scalar Topology.HVACClient[7].app[0].io "packets received" 0
scalar Topology.HVACClient[7].app[0].io packetReceived:count 0
attr interpolationmode none
attr moduledisplaypath Topology.HVACClient[7].besteffort.io
attr recordingmode count
attr source packetReceived
attr title "packets received, count"
scalar Topology.HVACClient[7].app[0].io packetReceived:sum(packetBytes) 0
attr interpolationmode none
attr moduledisplaypath Topology.HVACClient[7].besteffort.io
attr recordingmode sum(packetBytes)
attr source packetReceived
attr title "packets received, sum(packetBytes)"
scalar Topology.HVACClient[7].app[0].io packetSent:count 1
attr interpolationmode none
attr moduledisplaypath Topology.HVACClient[7].besteffort.io
attr recordingmode count
attr source packetSent
attr title "packets sent, count"
scalar Topology.HVACClient[7].app[0].io packetSent:sum(packetBytes) 16
attr interpolationmode none
attr moduledisplaypath Topology.HVACClient[7].besteffort.io
attr recordingmode sum(packetBytes)
attr source packetSent
attr title "packets sent, sum(packetBytes)"
par Topology.HVACClient[7].app[0] typename "\"inet.applications.udpapp.UdpSourceApp\""
par Topology.HVACClient[7].app[0] interfaceTableModule "\"Topology.HVACClient[7].interfaceTable\""
par Topology.HVACClient[7].app[1].sink typename "\"inet.queueing.sink.PassivePacketSink\""
par Topology.HVACClient[7].app[1].sink displayStringTextFormat "\"received %p pk (%l)\""
par Topology.HVACClient[7].app[1].sink clockModule "\"\""
par Topology.HVACClient[7].app[1].sink initialConsumptionOffset 0s
attr unit s
par Topology.HVACClient[7].app[1].sink consumptionInterval 0s
attr unit s
par Topology.HVACClient[7].app[1].sink scheduleForAbsoluteTime true
scalar Topology.HVACClient[7].app[1].sink packets:count 0
attr moduledisplaypath Topology.HVACClient[7].video.sink
attr recordingmode count
attr source packetPushed
attr title "packets, count"
attr unit pk
scalar Topology.HVACClient[7].app[1].sink packetLengths:sum 0
attr interpolationmode none
attr moduledisplaypath Topology.HVACClient[7].video.sink
attr recordingmode sum
attr source packetLength(packetPushed)
attr title "packet lengths, sum"
attr unit b
statistic Topology.HVACClient[7].app[1].sink packetLengths:histogram
field count 0
field mean -nan
field stddev nan
field min nan
field max nan
field sum 0
field sqrsum 0
attr interpolationmode none
attr moduledisplaypath Topology.HVACClient[7].video.sink
attr recordingmode histogram
attr source packetLength(packetPushed)
attr title "packet lengths"
attr unit b
bin	-inf	0
bin	0	0
bin	1	0
statistic Topology.HVACClient[7].app[1].sink meanBitLifeTimePerPacket:histogram
field count 0
field mean -nan
field stddev nan
field min nan
field max nan
field sum 0
field sqrsum 0
attr interpolationmode none
attr moduledisplaypath Topology.HVACClient[7].video.sink
attr recordingmode histogram
attr source weightedMeanPerGroup(groupRegionsPerPacket(lifeTimePerRegion(packetPushed)))
attr title "mean bit life time per packet"
attr unit s
bin	-inf	0
bin	0	0
bin	1	0
statistic Topology.HVACClient[7].app[1].sink packetJitter:histogram
field count 0
field mean -nan
field stddev nan
field min nan
field max nan
field sum 0
field sqrsum 0
attr interpolationmode none
attr moduledisplaypath Topology.HVACClient[7].video.sink
attr recordingmode histogram
attr source jitter(weightedMeanPerGroup(groupRegionsPerPacket(lifeTimePerRegion(packetPushed))))
attr title "packet jitter"
attr unit s
bin	-inf	0
bin	0	0
bin	1	0
statistic Topology.HVACClient[7].app[1].sink packetDelayDifferenceToMean:histogram
field count 0
field mean -nan
field stddev nan
field min nan
field max nan
field sum 0
field sqrsum 0
attr interpolationmode none
attr moduledisplaypath Topology.HVACClient[7].video.sink
attr recordingmode histogram
attr source differenceToMean(weightedMeanPerGroup(groupRegionsPerPacket(lifeTimePerRegion(packetPushed))))
attr title "packet delay difference to mean"
attr unit s
bin	-inf	0
bin	0	0
bin	1	0
statistic Topology.HVACClient[7].app[1].sink packetDelayVariation:histogram
field count 0
field mean -nan
field stddev nan
field min nan
field max nan
field sum 0
field sqrsum 0
attr moduledisplaypath Topology.HVACClient[7].video.sink
attr recordingmode histogram
attr source stddev(weightedMeanPerGroup(groupRegionsPerPacket(lifeTimePerRegion(packetPushed))))
attr title "packet delay variation"
attr unit s
bin	-inf	0
bin	0	0
bin	1	0
scalar Topology.HVACClient[7].app[1].sink droppedPackets:count 0
attr moduledisplaypath Topology.HVACClient[7].video.sink
attr recordingmode count
attr source packetDropped
attr title "dropped packets, count"
attr unit pk
scalar Topology.HVACClient[7].app[1].sink droppedPacketLengths:sum 0
attr interpolationmode none
attr moduledisplaypath Topology.HVACClient[7].video.sink
attr recordingmode sum
attr source packetLength(packetDropped)
attr title "dropped packet lengths, sum"
attr unit b
statistic Topology.HVACClient[7].app[1].sink droppedPacketLengths:histogram
field count 0
field mean -nan
field stddev nan
field min nan
field max nan
field sum 0
field sqrsum 0
attr interpolationmode none
attr moduledisplaypath Topology.HVACClient[7].video.sink
attr recordingmode histogram
attr source packetLength(packetDropped)
attr title "dropped packet lengths"
attr unit b
bin	-inf	0
bin	0	0
bin	1	0
par Topology.HVACClient[7].app[1].io typename "\"inet.applications.udpapp.UdpSocketIo\""
par Topology.HVACClient[7].app[1].io interfaceTableModule "\"Topology.HVACClient[7].app[1].interfaceTable\""
par Topology.HVACClient[7].app[1].io localAddress "\"\""
par Topology.HVACClient[7].app[1].io localPort 1001
par Topology.HVACClient[7].app[1].io destAddress "\"\""
par Topology.HVACClient[7].app[1].io destPort -1
par Topology.HVACClient[7].app[1].io timeToLive -1
par Topology.HVACClient[7].app[1].io dontFragment false
par Topology.HVACClient[7].app[1].io dscp -1
par Topology.HVACClient[7].app[1].io tos -1
par Topology.HVACClient[7].app[1].io multicastInterface "\"\""
par Topology.HVACClient[7].app[1].io multicastAddresses []
par Topology.HVACClient[7].app[1].io receiveBroadcast false
par Topology.HVACClient[7].app[1].io joinLocalMulticastGroups false
par Topology.HVACClient[7].app[1].io stopOperationExtraTime -1s
attr unit s
par Topology.HVACClient[7].app[1].io stopOperationTimeout 2s
attr unit s
scalar Topology.HVACClient[7].app[1].io "packets sent" 0
scalar Topology.HVACClient[7].app[1].io "packets received" 0
scalar Topology.HVACClient[7].app[1].io packetReceived:count 0
attr interpolationmode none
attr moduledisplaypath Topology.HVACClient[7].video.io
attr recordingmode count
attr source packetReceived
attr title "packets received, count"
scalar Topology.HVACClient[7].app[1].io packetReceived:sum(packetBytes) 0
attr interpolationmode none
attr moduledisplaypath Topology.HVACClient[7].video.io
attr recordingmode sum(packetBytes)
attr source packetReceived
attr title "packets received, sum(packetBytes)"
scalar Topology.HVACClient[7].app[1].io packetSent:count 0
attr interpolationmode none
attr moduledisplaypath Topology.HVACClient[7].video.io
attr recordingmode count
attr source packetSent
attr title "packets sent, count"
scalar Topology.HVACClient[7].app[1].io packetSent:sum(packetBytes) 0
attr interpolationmode none
attr moduledisplaypath Topology.HVACClient[7].video.io
attr recordingmode sum(packetBytes)
attr source packetSent
attr title "packets sent, sum(packetBytes)"
par Topology.HVACClient[7].app[1] typename "\"inet.applications.udpapp.UdpSinkApp\""
par Topology.HVACClient[7].app[1] interfaceTableModule "\"Topology.HVACClient[7].interfaceTable\""
par Topology.HVACClient[7].app[2].sink typename "\"inet.queueing.sink.PassivePacketSink\""
par Topology.HVACClient[7].app[2].sink displayStringTextFormat "\"received %p pk (%l)\""
par Topology.HVACClient[7].app[2].sink clockModule "\"\""
par Topology.HVACClient[7].app[2].sink initialConsumptionOffset 0s
attr unit s
par Topology.HVACClient[7].app[2].sink consumptionInterval 0s
attr unit s
par Topology.HVACClient[7].app[2].sink scheduleForAbsoluteTime true
scalar Topology.HVACClient[7].app[2].sink packets:count 0
attr moduledisplaypath Topology.HVACClient[7].besteffort.sink
attr recordingmode count
attr source packetPushed
attr title "packets, count"
attr unit pk
scalar Topology.HVACClient[7].app[2].sink packetLengths:sum 0
attr interpolationmode none
attr moduledisplaypath Topology.HVACClient[7].besteffort.sink
attr recordingmode sum
attr source packetLength(packetPushed)
attr title "packet lengths, sum"
attr unit b
statistic Topology.HVACClient[7].app[2].sink packetLengths:histogram
field count 0
field mean -nan
field stddev nan
field min nan
field max nan
field sum 0
field sqrsum 0
attr interpolationmode none
attr moduledisplaypath Topology.HVACClient[7].besteffort.sink
attr recordingmode histogram
attr source packetLength(packetPushed)
attr title "packet lengths"
attr unit b
bin	-inf	0
bin	0	0
bin	1	0
statistic Topology.HVACClient[7].app[2].sink meanBitLifeTimePerPacket:histogram
field count 0
field mean -nan
field stddev nan
field min nan
field max nan
field sum 0
field sqrsum 0
attr interpolationmode none
attr moduledisplaypath Topology.HVACClient[7].besteffort.sink
attr recordingmode histogram
attr source weightedMeanPerGroup(groupRegionsPerPacket(lifeTimePerRegion(packetPushed)))
attr title "mean bit life time per packet"
attr unit s
bin	-inf	0
bin	0	0
bin	1	0
statistic Topology.HVACClient[7].app[2].sink packetJitter:histogram
field count 0
field mean -nan
field stddev nan
field min nan
field max nan
field sum 0
field sqrsum 0
attr interpolationmode none
attr moduledisplaypath Topology.HVACClient[7].besteffort.sink
attr recordingmode histogram
attr source jitter(weightedMeanPerGroup(groupRegionsPerPacket(lifeTimePerRegion(packetPushed))))
attr title "packet jitter"
attr unit s
bin	-inf	0
bin	0	0
bin	1	0
statistic Topology.HVACClient[7].app[2].sink packetDelayDifferenceToMean:histogram
field count 0
field mean -nan
field stddev nan
field min nan
field max nan
field sum 0
field sqrsum 0
attr interpolationmode none
attr moduledisplaypath Topology.HVACClient[7].besteffort.sink
attr recordingmode histogram
attr source differenceToMean(weightedMeanPerGroup(groupRegionsPerPacket(lifeTimePerRegion(packetPushed))))
attr title "packet delay difference to mean"
attr unit s
bin	-inf	0
bin	0	0
bin	1	0
statistic Topology.HVACClient[7].app[2].sink packetDelayVariation:histogram
field count 0
field mean -nan
field stddev nan
field min nan
field max nan
field sum 0
field sqrsum 0
attr moduledisplaypath Topology.HVACClient[7].besteffort.sink
attr recordingmode histogram
attr source stddev(weightedMeanPerGroup(groupRegionsPerPacket(lifeTimePerRegion(packetPushed))))
attr title "packet delay variation"
attr unit s
bin	-inf	0
bin	0	0
bin	1	0
scalar Topology.HVACClient[7].app[2].sink droppedPackets:count 0
attr moduledisplaypath Topology.HVACClient[7].besteffort.sink
attr recordingmode count
attr source packetDropped
attr title "dropped packets, count"
attr unit pk
scalar Topology.HVACClient[7].app[2].sink droppedPacketLengths:sum 0
attr interpolationmode none
attr moduledisplaypath Topology.HVACClient[7].besteffort.sink
attr recordingmode sum
attr source packetLength(packetDropped)
attr title "dropped packet lengths, sum"
attr unit b
statistic Topology.HVACClient[7].app[2].sink droppedPacketLengths:histogram
field count 0
field mean -nan
field stddev nan
field min nan
field max nan
field sum 0
field sqrsum 0
attr interpolationmode none
attr moduledisplaypath Topology.HVACClient[7].besteffort.sink
attr recordingmode histogram
attr source packetLength(packetDropped)
attr title "dropped packet lengths"
attr unit b
bin	-inf	0
bin	0	0
bin	1	0
par Topology.HVACClient[7].app[2].io typename "\"inet.applications.udpapp.UdpSocketIo\""
par Topology.HVACClient[7].app[2].io interfaceTableModule "\"Topology.HVACClient[7].app[2].interfaceTable\""
par Topology.HVACClient[7].app[2].io localAddress "\"\""
par Topology.HVACClient[7].app[2].io localPort 1000
par Topology.HVACClient[7].app[2].io destAddress "\"\""
par Topology.HVACClient[7].app[2].io destPort -1
par Topology.HVACClient[7].app[2].io timeToLive -1
par Topology.HVACClient[7].app[2].io dontFragment false
par Topology.HVACClient[7].app[2].io dscp -1
par Topology.HVACClient[7].app[2].io tos -1
par Topology.HVACClient[7].app[2].io multicastInterface "\"\""
par Topology.HVACClient[7].app[2].io multicastAddresses []
par Topology.HVACClient[7].app[2].io receiveBroadcast false
par Topology.HVACClient[7].app[2].io joinLocalMulticastGroups false
par Topology.HVACClient[7].app[2].io stopOperationExtraTime -1s
attr unit s
par Topology.HVACClient[7].app[2].io stopOperationTimeout 2s
attr unit s
scalar Topology.HVACClient[7].app[2].io "packets sent" 0
scalar Topology.HVACClient[7].app[2].io "packets received" 0
scalar Topology.HVACClient[7].app[2].io packetReceived:count 0
attr interpolationmode none
attr moduledisplaypath Topology.HVACClient[7].besteffort.io
attr recordingmode count
attr source packetReceived
attr title "packets received, count"
scalar Topology.HVACClient[7].app[2].io packetReceived:sum(packetBytes) 0
attr interpolationmode none
attr moduledisplaypath Topology.HVACClient[7].besteffort.io
attr recordingmode sum(packetBytes)
attr source packetReceived
attr title "packets received, sum(packetBytes)"
scalar Topology.HVACClient[7].app[2].io packetSent:count 0
attr interpolationmode none
attr moduledisplaypath Topology.HVACClient[7].besteffort.io
attr recordingmode count
attr source packetSent
attr title "packets sent, count"
scalar Topology.HVACClient[7].app[2].io packetSent:sum(packetBytes) 0
attr interpolationmode none
attr moduledisplaypath Topology.HVACClient[7].besteffort.io
attr recordingmode sum(packetBytes)
attr source packetSent
attr title "packets sent, sum(packetBytes)"
par Topology.HVACClient[7].app[2] typename "\"inet.applications.udpapp.UdpSinkApp\""
par Topology.HVACClient[7].app[2] interfaceTableModule "\"Topology.HVACClient[7].interfaceTable\""
par Topology.HVACClient[7].at typename "\"inet.common.MessageDispatcher\""
par Topology.HVACClient[7].at displayStringTextFormat "\"processed %p pk (%l)\""
par Topology.HVACClient[7].at forwardServiceRegistration true
par Topology.HVACClient[7].at forwardProtocolRegistration true
par Topology.HVACClient[7] typename "\"inet.node.tsn.TsnDevice\""
par Topology.HVACClient[7] hasStatus false
par Topology.HVACClient[7] osgModel "\"\""
par Topology.HVACClient[7] osgModelColor "\"\""
par Topology.HVACClient[7] canvasImage "\"\""
par Topology.HVACClient[7] canvasImageColor "\"\""
par Topology.HVACClient[7] recordPcap false
par Topology.HVACClient[7] numPcapRecorders 0
par Topology.HVACClient[7] numLoInterfaces 1
par Topology.HVACClient[7] numWlanInterfaces 0
par Topology.HVACClient[7] numEthInterfaces 0
par Topology.HVACClient[7] numPppInterfaces 0
par Topology.HVACClient[7] numTunInterfaces 0
par Topology.HVACClient[7] numVirtInterfaces 0
par Topology.HVACClient[7] fcsMode "\"declared\""
attr enum declared,computed
par Topology.HVACClient[7] hasIpv4 true
par Topology.HVACClient[7] hasIpv6 false
par Topology.HVACClient[7] hasGn false
par Topology.HVACClient[7] forwarding true
par Topology.HVACClient[7] multicastForwarding false
par Topology.HVACClient[7] hasUdp true
par Topology.HVACClient[7] hasTcp true
par Topology.HVACClient[7] hasSctp false
par Topology.HVACClient[7] numApps 3
par Topology.HVACClient[7] hasTimeSynchronization false
par Topology.HVACClient[7] hasIngressTrafficFiltering false
par Topology.HVACClient[7] hasEgressTrafficFiltering false
par Topology.HVACClient[7] hasEgressTrafficShaping false
par Topology.HVACClient[7] hasStreamRedundancy false
par Topology.HVACClient[7] hasIncomingStreams false
par Topology.HVACClient[7] hasOutgoingStreams true
par Topology.HVACClient[7] hasFramePreemption false
par Topology.HVACClient[7] hasCutthroughSwitching false
par Topology typename "\"iatest.Topology\""
par Topology numHVAC 8

