file 308718 1733815401                                          
version 3
run config2-0-20241210-08:19:26-30349
attr configname config2
attr datetime 20241210-08:19:26
attr datetimef 20241210-081926
attr experiment config2
attr inifile omnetpp.ini
attr iterationvars ""
attr iterationvarsd ""
attr iterationvarsf ""
attr measurement ""
attr network Topology
attr processid 30349
attr repetition 0
attr replication #0
attr resultdir results
attr runnumber 0
attr seedset 0
config image-path ../../../Downloads/TSN5G-master/inet4.5/images:../../simu5G/images
config extends General
config *.server.app[1..30].source.packetNameFormat "\"%h-%c-0\""
config *.server.app[3].source.initialProductionOffset 10.0ms
config *.server.app[4].source.initialProductionOffset 10.0184ms
config *.server.app[16].source.initialProductionOffset 10.0368ms
config *.server.app[24].source.initialProductionOffset 10.068ms
config *.server.app[23].source.initialProductionOffset 10.0928ms
config *.server.app[6].source.initialProductionOffset 10.1176ms
config *.server.app[2].source.initialProductionOffset 10.136ms
config *.server.app[7].source.initialProductionOffset 10.1544ms
config *.server.app[18].source.initialProductionOffset 10.1728ms
config *.server.app[9].source.initialProductionOffset 10.204ms
config *.server.app[1].source.initialProductionOffset 10.2224ms
config *.server.app[29].source.initialProductionOffset 10.2408ms
config *.server.app[20].source.initialProductionOffset 10.2656ms
config *.server.app[19].source.initialProductionOffset 10.2968ms
config *.server.app[15].source.initialProductionOffset 10.328ms
config *.server.app[28].source.initialProductionOffset 10.3592ms
config *.server.app[17].source.initialProductionOffset 10.384ms
config *.server.app[13].source.initialProductionOffset 10.4152ms
config *.server.app[25].source.initialProductionOffset 10.4464ms
config *.server.app[14].source.initialProductionOffset 10.4712ms
config *.server.app[8].source.initialProductionOffset 10.5024ms
config *.server.app[26].source.initialProductionOffset 10.5208ms
config *.server.app[27].source.initialProductionOffset 10.5456ms
config *.server.app[10].source.initialProductionOffset 10.5704ms
config *.server.app[22].source.initialProductionOffset 10.5888ms
config *.server.app[5].source.initialProductionOffset 10.6136ms
config *.server.app[11].source.initialProductionOffset 10.632ms
config *.server.app[21].source.initialProductionOffset 10.6632ms
config *.server.app[12].source.initialProductionOffset 10.688ms
config *.server.app[30].source.initialProductionOffset 10.7192ms
config *.switch*.eth[1].macLayer.queue.transmissionGate[0].offset 10ms
config *.switch1.eth[3].macLayer.queue.transmissionGate[0].durations []
config *.switch1.eth[2].macLayer.queue.transmissionGate[0].durations []
config *.switch2.eth[3].macLayer.queue.transmissionGate[0].durations "[1.001ms, 0.117ms, 0.883ms, 0.117ms, 0.883ms, 0.117ms, 0.883ms, 0.117ms, 0.883ms, 0.117ms, 0.054ms, 0.828ms]"
config *.switch2.eth[4].macLayer.queue.transmissionGate[0].durations []
config *.switch2.eth[2].macLayer.queue.transmissionGate[0].durations []
config *.switch3.eth[3].macLayer.queue.transmissionGate[0].durations "[2.001ms, 0.3ms, 1.7ms, 0.3ms, 0.7ms, 0.999ms]"
config *.switch3.eth[4].macLayer.queue.transmissionGate[0].durations []
config *.switch3.eth[2].macLayer.queue.transmissionGate[0].durations []
config *.switch4.eth[3].macLayer.queue.transmissionGate[0].durations "[0.076ms, 0.42ms, 1.035ms, 0.469ms, 1.001ms, 0.495ms, 0.035ms, 0.469ms, 1.001ms, 0.999ms]"
config *.switch4.eth[2].macLayer.queue.transmissionGate[0].durations []
config *.switch5.eth[0].macLayer.queue.transmissionGate[0].durations "[0.485ms, 0.196ms, 0.32ms, 0.135ms, 0.865ms, 0.135ms, 0.349ms, 0.232ms, 0.284ms, 0.135ms, 0.349ms, 0.196ms, 0.32ms, 0.135ms, 0.349ms, 0.232ms, 0.284ms, 0.135ms, 0.349ms, 0.515ms]"
config *.switch5.eth[1].macLayer.queue.transmissionGate[0].durations "[0.119ms, 0.135ms, 0.101ms, 0.216ms, 1.001ms, 0.428ms, 0.119ms, 0.204ms, 0.032ms, 0.216ms, 1.001ms, 0.428ms, 0.119ms, 0.204ms, 0.032ms, 0.216ms, 0.548ms, 0.881ms]"
config *.switch5.eth[2].macLayer.queue.transmissionGate[0].durations []
config *.switch6.eth[0].macLayer.queue.transmissionGate[0].durations "[0.212ms, 0.117ms, 1.883ms, 0.117ms, 0.118ms, 0.553ms, 1.212ms, 0.117ms, 0.118ms, 1.553ms]"
config *.switch6.eth[1].macLayer.queue.transmissionGate[0].durations "[0.237ms, 0.185ms, 1.092ms, 0.486ms, 1.237ms, 0.185ms, 0.366ms, 0.212ms, 1.001ms, 0.999ms]"
config *.switch6.eth[2].macLayer.queue.transmissionGate[0].durations []
config *.switch7.eth[2].macLayer.queue.transmissionGate[0].durations "[0.342ms, 0.16ms, 0.225ms, 0.273ms, 0.223ms, 0.279ms, 0.069ms, 0.429ms, 0.342ms, 0.16ms, 0.2ms, 0.298ms, 0.248ms, 0.254ms, 0.225ms, 0.273ms, 0.342ms, 0.16ms, 0.2ms, 0.298ms, 0.223ms, 0.279ms, 0.069ms, 0.429ms]"
config *.switch7.eth[1].macLayer.queue.transmissionGate[0].durations "[1.541ms, 0.521ms, 0.143ms, 0.118ms, 0.218ms, 0.459ms, 0.063ms, 0.229ms, 0.249ms, 0.521ms, 0.143ms, 0.118ms, 0.74ms, 0.937ms]"
config network Topology
config *.switch1.macTable.forwardingTable "[{address:\"0A-AA-00-00-00-01\", interface:\"eth2\"}]"
config *.switch2.macTable.forwardingTable "[{address:\"0A-AA-00-00-00-01\", interface:\"eth2\"}]"
config *.switch3.macTable.forwardingTable "[{address:\"0A-AA-00-00-00-01\", interface:\"eth2\"}]"
config *.switch4.macTable.forwardingTable "[{address:\"0A-AA-00-00-00-01\", interface:\"eth2\"}]"
config *.switch5.macTable.forwardingTable "[{address:\"0A-AA-00-00-00-01\", interface:\"eth2\"}]"
config *.switch6.macTable.forwardingTable "[{address:\"0A-AA-00-00-00-01\", interface:\"eth2\"}]"
config *.switch7.macTable.forwardingTable "[{address:\"0A-AA-00-00-00-01\", interface:\"eth0\"}]"
config **.selector.filePath "\"/home/simu5g/simu5g-workspace/test/iatest/path.txt\""
config **.ipv4.arp.typename GlobalArp
config *.*.hasOutgoingStreams true
config *.*Client*.bridging.streamIdentifier.identifier.mapping "[{stream: \"besteffort\", packetFilter: expr(has(udp) && udp.destPort == 1000)},\n\t\t\t\t\t\t\t\t\t\t\t\t\t\t\t{stream: \"video\", packetFilter: expr(has(udp) && udp.destPort == 1001)}]"
config *.*Client*.bridging.streamCoder.encoder.mapping "[{stream: \"besteffort\", pcp: 0},\n\t\t\t\t\t\t\t\t\t\t\t\t\t{stream: \"video\", pcp: 4}]"
config *.server.bridging.streamIdentifier.identifier.mapping "[{stream: \"besteffort\", packetFilter: expr(has(udp) && udp.destPort == 1000)},\n\t\t\t\t\t\t\t\t\t\t\t\t\t\t\t{stream: \"video\", packetFilter: expr(has(udp) && udp.destPort == 1001)}]"
config *.server.bridging.streamCoder.encoder.mapping "[{stream: \"besteffort\", pcp: 0},\n\t\t\t\t\t\t\t\t\t\t\t\t\t{stream: \"video\", pcp: 4}]"
config *.switch*.hasEgressTrafficShaping true
config *.switch*.bridging.directionReverser.reverser.excludeEncapsulationProtocols "[\"ieee8021qctag\"]"
config *.switch*.bridging.streamIdentifier.identifier.mapping "[{stream: \"besteffort\", packetFilter: expr(has(udp) && udp.destPort == 1000)},\n\t\t\t\t\t\t\t\t\t\t\t\t\t\t\t{stream: \"video\", packetFilter: expr(has(udp) && udp.destPort == 1001)}]"
config *.switch*.bridging.streamCoder.encoder.mapping "[{stream: \"besteffort\", pcp: 0},\n\t\t\t\t\t\t\t\t\t\t\t\t\t{stream: \"video\", pcp: 4}]"
config *.switch*.bridging.streamCoder.decoder.mapping "[{pcp: 0, stream: \"besteffort\"},\n                                                 {pcp: 4, stream: \"video\"}]"
config *.switch*.eth[*].macLayer.queue.numTrafficClasses 2
config *.switch*.eth[*].macLayer.queue.*[0].display-name besteffort
config *.switch*.eth[*].macLayer.queue.*[1].display-name video
config *.*Client*.numApps 3
config *.*Client*.app[0].typename UdpSourceApp
config *.*Client*.app[0].display-name besteffort
config *.*Client*.app[0].io.destAddress "\"server\""
config *.*Client*.app[0].io.destPort 1000
config *.*Client*.app[0].io.localPort 1002
config *.*Client*.app[0].source.packetLength 16B
config *.*Client*.app[0].source.productionInterval 2ms
config *.*Client*.app[0].source.initialProductionOffset 0s
config *.*Client*.app[1].typename UdpSinkApp
config *.*Client*.app[1].display-name video
config *.*Client*.app[1].io.localPort 1001
config *.*Client*.app[2].typename UdpSinkApp
config *.*Client*.app[2].display-name besteffort
config *.*Client*.app[2].io.localPort 1000
config *.server.numApps 31
config *.server.app[0].typename UdpSinkApp
config *.server.app[0].display-name besteffort
config *.server.app[0].io.localPort 1000
config *.server.app[1..30].typename UdpSourceApp
config *.server.app[1..30].display-name video
config *.server.app[11..20].display-name besteffort
config *.server.app[1..30].io.destPort 1001
config *.server.app[1..30].io.localPort 1000+ancestorIndex(1)
config *.server.app[1..10].source.packetLength 160B
config *.server.app[11..20].source.packetLength 320B
config *.server.app[21..30].source.packetLength 240B
config *.server.app[1..10].source.productionInterval 1ms
config *.server.app[11..20].source.productionInterval 2ms
config *.server.app[21..30].source.productionInterval 3ms
config *.server.app[1..5].io.destAddress "\"HVACClient[0]\""
config *.server.app[6..9].io.destAddress "\"HVACClient[1]\""
config *.server.app[10..14].io.destAddress "\"HVACClient[2]\""
config *.server.app[15..16].io.destAddress "\"HVACClient[3]\""
config *.server.app[17..20].io.destAddress "\"HVACClient[4]\""
config *.server.app[21..23].io.destAddress "\"HVACClient[5]\""
config *.server.app[24..27].io.destAddress "\"HVACClient[6]\""
config *.server.app[28..30].io.destAddress "\"HVACClient[7]\""

vector 0 Topology.server.eth[0].phyLayer.interFrameGapInserter interpacketGap:vector ETV
attr interpolationmode sample-hold
attr recordingmode vector
attr source "count(interpacketGapStarted) - count(interpacketGapEnded)"
attr title "interpacket gap state"
attr type int
vector 1 Topology.server.eth[0].phyLayer.transmitter transmitting:vector ETV
attr interpolationmode sample-hold
attr recordingmode vector
attr source "count(transmissionStarted) - count(transmissionEnded)"
attr title "transmitting state"
attr type int
vector 2 Topology.server.udp passedUpPk:vector(count) ETV
attr interpolationmode none
attr recordingmode vector(count)
attr source packetSentToUpper
attr title "packets passed up, count"
vector 3 Topology.server.udp droppedPkWrongPort:vector(count) ETV
attr interpolationmode none
attr recordingmode vector(count)
attr source packetDropReasonIsNoPortFound(packetDropped)
attr title "packets dropped (wrong port), count"
vector 4 Topology.server.udp droppedPkBadChecksum:vector(count) ETV
attr interpolationmode none
attr recordingmode vector(count)
attr source packetDropReasonIsIncorrectlyReceived(packetDropped)
attr title "packets dropped (checksum error), count"
vector 5 Topology.switch1.eth[0].phyLayer.interFrameGapInserter interpacketGap:vector ETV
attr interpolationmode sample-hold
attr recordingmode vector
attr source "count(interpacketGapStarted) - count(interpacketGapEnded)"
attr title "interpacket gap state"
attr type int
vector 6 Topology.switch1.eth[0].phyLayer.transmitter transmitting:vector ETV
attr interpolationmode sample-hold
attr recordingmode vector
attr source "count(transmissionStarted) - count(transmissionEnded)"
attr title "transmitting state"
attr type int
vector 7 Topology.switch1.eth[1].phyLayer.interFrameGapInserter interpacketGap:vector ETV
attr interpolationmode sample-hold
attr recordingmode vector
attr source "count(interpacketGapStarted) - count(interpacketGapEnded)"
attr title "interpacket gap state"
attr type int
vector 8 Topology.switch1.eth[1].phyLayer.transmitter transmitting:vector ETV
attr interpolationmode sample-hold
attr recordingmode vector
attr source "count(transmissionStarted) - count(transmissionEnded)"
attr title "transmitting state"
attr type int
vector 9 Topology.switch1.eth[2].phyLayer.interFrameGapInserter interpacketGap:vector ETV
attr interpolationmode sample-hold
attr recordingmode vector
attr source "count(interpacketGapStarted) - count(interpacketGapEnded)"
attr title "interpacket gap state"
attr type int
vector 10 Topology.switch1.eth[2].phyLayer.transmitter transmitting:vector ETV
attr interpolationmode sample-hold
attr recordingmode vector
attr source "count(transmissionStarted) - count(transmissionEnded)"
attr title "transmitting state"
attr type int
vector 11 Topology.switch1.eth[3].phyLayer.interFrameGapInserter interpacketGap:vector ETV
attr interpolationmode sample-hold
attr recordingmode vector
attr source "count(interpacketGapStarted) - count(interpacketGapEnded)"
attr title "interpacket gap state"
attr type int
vector 12 Topology.switch1.eth[3].phyLayer.transmitter transmitting:vector ETV
attr interpolationmode sample-hold
attr recordingmode vector
attr source "count(transmissionStarted) - count(transmissionEnded)"
attr title "transmitting state"
attr type int
vector 13 Topology.switch2.eth[0].phyLayer.interFrameGapInserter interpacketGap:vector ETV
attr interpolationmode sample-hold
attr recordingmode vector
attr source "count(interpacketGapStarted) - count(interpacketGapEnded)"
attr title "interpacket gap state"
attr type int
vector 14 Topology.switch2.eth[0].phyLayer.transmitter transmitting:vector ETV
attr interpolationmode sample-hold
attr recordingmode vector
attr source "count(transmissionStarted) - count(transmissionEnded)"
attr title "transmitting state"
attr type int
vector 15 Topology.switch2.eth[1].phyLayer.interFrameGapInserter interpacketGap:vector ETV
attr interpolationmode sample-hold
attr recordingmode vector
attr source "count(interpacketGapStarted) - count(interpacketGapEnded)"
attr title "interpacket gap state"
attr type int
vector 16 Topology.switch2.eth[1].phyLayer.transmitter transmitting:vector ETV
attr interpolationmode sample-hold
attr recordingmode vector
attr source "count(transmissionStarted) - count(transmissionEnded)"
attr title "transmitting state"
attr type int
vector 17 Topology.switch2.eth[2].phyLayer.interFrameGapInserter interpacketGap:vector ETV
attr interpolationmode sample-hold
attr recordingmode vector
attr source "count(interpacketGapStarted) - count(interpacketGapEnded)"
attr title "interpacket gap state"
attr type int
vector 18 Topology.switch2.eth[2].phyLayer.transmitter transmitting:vector ETV
attr interpolationmode sample-hold
attr recordingmode vector
attr source "count(transmissionStarted) - count(transmissionEnded)"
attr title "transmitting state"
attr type int
vector 19 Topology.switch2.eth[3].phyLayer.interFrameGapInserter interpacketGap:vector ETV
attr interpolationmode sample-hold
attr recordingmode vector
attr source "count(interpacketGapStarted) - count(interpacketGapEnded)"
attr title "interpacket gap state"
attr type int
vector 20 Topology.switch2.eth[3].phyLayer.transmitter transmitting:vector ETV
attr interpolationmode sample-hold
attr recordingmode vector
attr source "count(transmissionStarted) - count(transmissionEnded)"
attr title "transmitting state"
attr type int
vector 21 Topology.switch2.eth[4].phyLayer.interFrameGapInserter interpacketGap:vector ETV
attr interpolationmode sample-hold
attr recordingmode vector
attr source "count(interpacketGapStarted) - count(interpacketGapEnded)"
attr title "interpacket gap state"
attr type int
vector 22 Topology.switch2.eth[4].phyLayer.transmitter transmitting:vector ETV
attr interpolationmode sample-hold
attr recordingmode vector
attr source "count(transmissionStarted) - count(transmissionEnded)"
attr title "transmitting state"
attr type int
vector 23 Topology.switch3.eth[0].phyLayer.interFrameGapInserter interpacketGap:vector ETV
attr interpolationmode sample-hold
attr recordingmode vector
attr source "count(interpacketGapStarted) - count(interpacketGapEnded)"
attr title "interpacket gap state"
attr type int
vector 24 Topology.switch3.eth[0].phyLayer.transmitter transmitting:vector ETV
attr interpolationmode sample-hold
attr recordingmode vector
attr source "count(transmissionStarted) - count(transmissionEnded)"
attr title "transmitting state"
attr type int
vector 25 Topology.switch3.eth[1].phyLayer.interFrameGapInserter interpacketGap:vector ETV
attr interpolationmode sample-hold
attr recordingmode vector
attr source "count(interpacketGapStarted) - count(interpacketGapEnded)"
attr title "interpacket gap state"
attr type int
vector 26 Topology.switch3.eth[1].phyLayer.transmitter transmitting:vector ETV
attr interpolationmode sample-hold
attr recordingmode vector
attr source "count(transmissionStarted) - count(transmissionEnded)"
attr title "transmitting state"
attr type int
vector 27 Topology.switch3.eth[2].phyLayer.interFrameGapInserter interpacketGap:vector ETV
attr interpolationmode sample-hold
attr recordingmode vector
attr source "count(interpacketGapStarted) - count(interpacketGapEnded)"
attr title "interpacket gap state"
attr type int
vector 28 Topology.switch3.eth[2].phyLayer.transmitter transmitting:vector ETV
attr interpolationmode sample-hold
attr recordingmode vector
attr source "count(transmissionStarted) - count(transmissionEnded)"
attr title "transmitting state"
attr type int
vector 29 Topology.switch3.eth[3].phyLayer.interFrameGapInserter interpacketGap:vector ETV
attr interpolationmode sample-hold
attr recordingmode vector
attr source "count(interpacketGapStarted) - count(interpacketGapEnded)"
attr title "interpacket gap state"
attr type int
vector 30 Topology.switch3.eth[3].phyLayer.transmitter transmitting:vector ETV
attr interpolationmode sample-hold
attr recordingmode vector
attr source "count(transmissionStarted) - count(transmissionEnded)"
attr title "transmitting state"
attr type int
vector 31 Topology.switch3.eth[4].phyLayer.interFrameGapInserter interpacketGap:vector ETV
attr interpolationmode sample-hold
attr recordingmode vector
attr source "count(interpacketGapStarted) - count(interpacketGapEnded)"
attr title "interpacket gap state"
attr type int
vector 32 Topology.switch3.eth[4].phyLayer.transmitter transmitting:vector ETV
attr interpolationmode sample-hold
attr recordingmode vector
attr source "count(transmissionStarted) - count(transmissionEnded)"
attr title "transmitting state"
attr type int
vector 33 Topology.switch4.eth[0].phyLayer.interFrameGapInserter interpacketGap:vector ETV
attr interpolationmode sample-hold
attr recordingmode vector
attr source "count(interpacketGapStarted) - count(interpacketGapEnded)"
attr title "interpacket gap state"
attr type int
vector 34 Topology.switch4.eth[0].phyLayer.transmitter transmitting:vector ETV
attr interpolationmode sample-hold
attr recordingmode vector
attr source "count(transmissionStarted) - count(transmissionEnded)"
attr title "transmitting state"
attr type int
vector 35 Topology.switch4.eth[1].phyLayer.interFrameGapInserter interpacketGap:vector ETV
attr interpolationmode sample-hold
attr recordingmode vector
attr source "count(interpacketGapStarted) - count(interpacketGapEnded)"
attr title "interpacket gap state"
attr type int
vector 36 Topology.switch4.eth[1].phyLayer.transmitter transmitting:vector ETV
attr interpolationmode sample-hold
attr recordingmode vector
attr source "count(transmissionStarted) - count(transmissionEnded)"
attr title "transmitting state"
attr type int
vector 37 Topology.switch4.eth[2].phyLayer.interFrameGapInserter interpacketGap:vector ETV
attr interpolationmode sample-hold
attr recordingmode vector
attr source "count(interpacketGapStarted) - count(interpacketGapEnded)"
attr title "interpacket gap state"
attr type int
vector 38 Topology.switch4.eth[2].phyLayer.transmitter transmitting:vector ETV
attr interpolationmode sample-hold
attr recordingmode vector
attr source "count(transmissionStarted) - count(transmissionEnded)"
attr title "transmitting state"
attr type int
vector 39 Topology.switch4.eth[3].phyLayer.interFrameGapInserter interpacketGap:vector ETV
attr interpolationmode sample-hold
attr recordingmode vector
attr source "count(interpacketGapStarted) - count(interpacketGapEnded)"
attr title "interpacket gap state"
attr type int
vector 40 Topology.switch4.eth[3].phyLayer.transmitter transmitting:vector ETV
attr interpolationmode sample-hold
attr recordingmode vector
attr source "count(transmissionStarted) - count(transmissionEnded)"
attr title "transmitting state"
attr type int
vector 41 Topology.switch5.eth[0].phyLayer.interFrameGapInserter interpacketGap:vector ETV
attr interpolationmode sample-hold
attr recordingmode vector
attr source "count(interpacketGapStarted) - count(interpacketGapEnded)"
attr title "interpacket gap state"
attr type int
vector 42 Topology.switch5.eth[0].phyLayer.transmitter transmitting:vector ETV
attr interpolationmode sample-hold
attr recordingmode vector
attr source "count(transmissionStarted) - count(transmissionEnded)"
attr title "transmitting state"
attr type int
vector 43 Topology.switch5.eth[1].phyLayer.interFrameGapInserter interpacketGap:vector ETV
attr interpolationmode sample-hold
attr recordingmode vector
attr source "count(interpacketGapStarted) - count(interpacketGapEnded)"
attr title "interpacket gap state"
attr type int
vector 44 Topology.switch5.eth[1].phyLayer.transmitter transmitting:vector ETV
attr interpolationmode sample-hold
attr recordingmode vector
attr source "count(transmissionStarted) - count(transmissionEnded)"
attr title "transmitting state"
attr type int
vector 45 Topology.switch5.eth[2].phyLayer.interFrameGapInserter interpacketGap:vector ETV
attr interpolationmode sample-hold
attr recordingmode vector
attr source "count(interpacketGapStarted) - count(interpacketGapEnded)"
attr title "interpacket gap state"
attr type int
vector 46 Topology.switch5.eth[2].phyLayer.transmitter transmitting:vector ETV
attr interpolationmode sample-hold
attr recordingmode vector
attr source "count(transmissionStarted) - count(transmissionEnded)"
attr title "transmitting state"
attr type int
vector 47 Topology.switch6.eth[0].phyLayer.interFrameGapInserter interpacketGap:vector ETV
attr interpolationmode sample-hold
attr recordingmode vector
attr source "count(interpacketGapStarted) - count(interpacketGapEnded)"
attr title "interpacket gap state"
attr type int
vector 48 Topology.switch6.eth[0].phyLayer.transmitter transmitting:vector ETV
attr interpolationmode sample-hold
attr recordingmode vector
attr source "count(transmissionStarted) - count(transmissionEnded)"
attr title "transmitting state"
attr type int
vector 49 Topology.switch6.eth[1].phyLayer.interFrameGapInserter interpacketGap:vector ETV
attr interpolationmode sample-hold
attr recordingmode vector
attr source "count(interpacketGapStarted) - count(interpacketGapEnded)"
attr title "interpacket gap state"
attr type int
vector 50 Topology.switch6.eth[1].phyLayer.transmitter transmitting:vector ETV
attr interpolationmode sample-hold
attr recordingmode vector
attr source "count(transmissionStarted) - count(transmissionEnded)"
attr title "transmitting state"
attr type int
vector 51 Topology.switch6.eth[2].phyLayer.interFrameGapInserter interpacketGap:vector ETV
attr interpolationmode sample-hold
attr recordingmode vector
attr source "count(interpacketGapStarted) - count(interpacketGapEnded)"
attr title "interpacket gap state"
attr type int
vector 52 Topology.switch6.eth[2].phyLayer.transmitter transmitting:vector ETV
attr interpolationmode sample-hold
attr recordingmode vector
attr source "count(transmissionStarted) - count(transmissionEnded)"
attr title "transmitting state"
attr type int
vector 53 Topology.switch7.eth[0].phyLayer.interFrameGapInserter interpacketGap:vector ETV
attr interpolationmode sample-hold
attr recordingmode vector
attr source "count(interpacketGapStarted) - count(interpacketGapEnded)"
attr title "interpacket gap state"
attr type int
vector 54 Topology.switch7.eth[0].phyLayer.transmitter transmitting:vector ETV
attr interpolationmode sample-hold
attr recordingmode vector
attr source "count(transmissionStarted) - count(transmissionEnded)"
attr title "transmitting state"
attr type int
vector 55 Topology.switch7.eth[1].phyLayer.interFrameGapInserter interpacketGap:vector ETV
attr interpolationmode sample-hold
attr recordingmode vector
attr source "count(interpacketGapStarted) - count(interpacketGapEnded)"
attr title "interpacket gap state"
attr type int
vector 56 Topology.switch7.eth[1].phyLayer.transmitter transmitting:vector ETV
attr interpolationmode sample-hold
attr recordingmode vector
attr source "count(transmissionStarted) - count(transmissionEnded)"
attr title "transmitting state"
attr type int
vector 57 Topology.switch7.eth[2].phyLayer.interFrameGapInserter interpacketGap:vector ETV
attr interpolationmode sample-hold
attr recordingmode vector
attr source "count(interpacketGapStarted) - count(interpacketGapEnded)"
attr title "interpacket gap state"
attr type int
vector 58 Topology.switch7.eth[2].phyLayer.transmitter transmitting:vector ETV
attr interpolationmode sample-hold
attr recordingmode vector
attr source "count(transmissionStarted) - count(transmissionEnded)"
attr title "transmitting state"
attr type int
vector 59 Topology.HVACClient[0].eth[0].phyLayer.interFrameGapInserter interpacketGap:vector ETV
attr interpolationmode sample-hold
attr recordingmode vector
attr source "count(interpacketGapStarted) - count(interpacketGapEnded)"
attr title "interpacket gap state"
attr type int
vector 60 Topology.HVACClient[0].eth[0].phyLayer.transmitter transmitting:vector ETV
attr interpolationmode sample-hold
attr recordingmode vector
attr source "count(transmissionStarted) - count(transmissionEnded)"
attr title "transmitting state"
attr type int
vector 61 Topology.HVACClient[0].udp passedUpPk:vector(count) ETV
attr interpolationmode none
attr recordingmode vector(count)
attr source packetSentToUpper
attr title "packets passed up, count"
vector 62 Topology.HVACClient[0].udp droppedPkWrongPort:vector(count) ETV
attr interpolationmode none
attr recordingmode vector(count)
attr source packetDropReasonIsNoPortFound(packetDropped)
attr title "packets dropped (wrong port), count"
vector 63 Topology.HVACClient[0].udp droppedPkBadChecksum:vector(count) ETV
attr interpolationmode none
attr recordingmode vector(count)
attr source packetDropReasonIsIncorrectlyReceived(packetDropped)
attr title "packets dropped (checksum error), count"
vector 64 Topology.HVACClient[1].eth[0].phyLayer.interFrameGapInserter interpacketGap:vector ETV
attr interpolationmode sample-hold
attr recordingmode vector
attr source "count(interpacketGapStarted) - count(interpacketGapEnded)"
attr title "interpacket gap state"
attr type int
vector 65 Topology.HVACClient[1].eth[0].phyLayer.transmitter transmitting:vector ETV
attr interpolationmode sample-hold
attr recordingmode vector
attr source "count(transmissionStarted) - count(transmissionEnded)"
attr title "transmitting state"
attr type int
vector 66 Topology.HVACClient[1].udp passedUpPk:vector(count) ETV
attr interpolationmode none
attr recordingmode vector(count)
attr source packetSentToUpper
attr title "packets passed up, count"
vector 67 Topology.HVACClient[1].udp droppedPkWrongPort:vector(count) ETV
attr interpolationmode none
attr recordingmode vector(count)
attr source packetDropReasonIsNoPortFound(packetDropped)
attr title "packets dropped (wrong port), count"
vector 68 Topology.HVACClient[1].udp droppedPkBadChecksum:vector(count) ETV
attr interpolationmode none
attr recordingmode vector(count)
attr source packetDropReasonIsIncorrectlyReceived(packetDropped)
attr title "packets dropped (checksum error), count"
vector 69 Topology.HVACClient[2].eth[0].phyLayer.interFrameGapInserter interpacketGap:vector ETV
attr interpolationmode sample-hold
attr recordingmode vector
attr source "count(interpacketGapStarted) - count(interpacketGapEnded)"
attr title "interpacket gap state"
attr type int
vector 70 Topology.HVACClient[2].eth[0].phyLayer.transmitter transmitting:vector ETV
attr interpolationmode sample-hold
attr recordingmode vector
attr source "count(transmissionStarted) - count(transmissionEnded)"
attr title "transmitting state"
attr type int
vector 71 Topology.HVACClient[2].udp passedUpPk:vector(count) ETV
attr interpolationmode none
attr recordingmode vector(count)
attr source packetSentToUpper
attr title "packets passed up, count"
vector 72 Topology.HVACClient[2].udp droppedPkWrongPort:vector(count) ETV
attr interpolationmode none
attr recordingmode vector(count)
attr source packetDropReasonIsNoPortFound(packetDropped)
attr title "packets dropped (wrong port), count"
vector 73 Topology.HVACClient[2].udp droppedPkBadChecksum:vector(count) ETV
attr interpolationmode none
attr recordingmode vector(count)
attr source packetDropReasonIsIncorrectlyReceived(packetDropped)
attr title "packets dropped (checksum error), count"
vector 74 Topology.HVACClient[3].eth[0].phyLayer.interFrameGapInserter interpacketGap:vector ETV
attr interpolationmode sample-hold
attr recordingmode vector
attr source "count(interpacketGapStarted) - count(interpacketGapEnded)"
attr title "interpacket gap state"
attr type int
vector 75 Topology.HVACClient[3].eth[0].phyLayer.transmitter transmitting:vector ETV
attr interpolationmode sample-hold
attr recordingmode vector
attr source "count(transmissionStarted) - count(transmissionEnded)"
attr title "transmitting state"
attr type int
vector 76 Topology.HVACClient[3].udp passedUpPk:vector(count) ETV
attr interpolationmode none
attr recordingmode vector(count)
attr source packetSentToUpper
attr title "packets passed up, count"
vector 77 Topology.HVACClient[3].udp droppedPkWrongPort:vector(count) ETV
attr interpolationmode none
attr recordingmode vector(count)
attr source packetDropReasonIsNoPortFound(packetDropped)
attr title "packets dropped (wrong port), count"
vector 78 Topology.HVACClient[3].udp droppedPkBadChecksum:vector(count) ETV
attr interpolationmode none
attr recordingmode vector(count)
attr source packetDropReasonIsIncorrectlyReceived(packetDropped)
attr title "packets dropped (checksum error), count"
vector 79 Topology.HVACClient[4].eth[0].phyLayer.interFrameGapInserter interpacketGap:vector ETV
attr interpolationmode sample-hold
attr recordingmode vector
attr source "count(interpacketGapStarted) - count(interpacketGapEnded)"
attr title "interpacket gap state"
attr type int
vector 80 Topology.HVACClient[4].eth[0].phyLayer.transmitter transmitting:vector ETV
attr interpolationmode sample-hold
attr recordingmode vector
attr source "count(transmissionStarted) - count(transmissionEnded)"
attr title "transmitting state"
attr type int
vector 81 Topology.HVACClient[4].udp passedUpPk:vector(count) ETV
attr interpolationmode none
attr recordingmode vector(count)
attr source packetSentToUpper
attr title "packets passed up, count"
vector 82 Topology.HVACClient[4].udp droppedPkWrongPort:vector(count) ETV
attr interpolationmode none
attr recordingmode vector(count)
attr source packetDropReasonIsNoPortFound(packetDropped)
attr title "packets dropped (wrong port), count"
vector 83 Topology.HVACClient[4].udp droppedPkBadChecksum:vector(count) ETV
attr interpolationmode none
attr recordingmode vector(count)
attr source packetDropReasonIsIncorrectlyReceived(packetDropped)
attr title "packets dropped (checksum error), count"
vector 84 Topology.HVACClient[5].eth[0].phyLayer.interFrameGapInserter interpacketGap:vector ETV
attr interpolationmode sample-hold
attr recordingmode vector
attr source "count(interpacketGapStarted) - count(interpacketGapEnded)"
attr title "interpacket gap state"
attr type int
vector 85 Topology.HVACClient[5].eth[0].phyLayer.transmitter transmitting:vector ETV
attr interpolationmode sample-hold
attr recordingmode vector
attr source "count(transmissionStarted) - count(transmissionEnded)"
attr title "transmitting state"
attr type int
vector 86 Topology.HVACClient[5].udp passedUpPk:vector(count) ETV
attr interpolationmode none
attr recordingmode vector(count)
attr source packetSentToUpper
attr title "packets passed up, count"
vector 87 Topology.HVACClient[5].udp droppedPkWrongPort:vector(count) ETV
attr interpolationmode none
attr recordingmode vector(count)
attr source packetDropReasonIsNoPortFound(packetDropped)
attr title "packets dropped (wrong port), count"
vector 88 Topology.HVACClient[5].udp droppedPkBadChecksum:vector(count) ETV
attr interpolationmode none
attr recordingmode vector(count)
attr source packetDropReasonIsIncorrectlyReceived(packetDropped)
attr title "packets dropped (checksum error), count"
vector 89 Topology.HVACClient[6].eth[0].phyLayer.interFrameGapInserter interpacketGap:vector ETV
attr interpolationmode sample-hold
attr recordingmode vector
attr source "count(interpacketGapStarted) - count(interpacketGapEnded)"
attr title "interpacket gap state"
attr type int
vector 90 Topology.HVACClient[6].eth[0].phyLayer.transmitter transmitting:vector ETV
attr interpolationmode sample-hold
attr recordingmode vector
attr source "count(transmissionStarted) - count(transmissionEnded)"
attr title "transmitting state"
attr type int
vector 91 Topology.HVACClient[6].udp passedUpPk:vector(count) ETV
attr interpolationmode none
attr recordingmode vector(count)
attr source packetSentToUpper
attr title "packets passed up, count"
vector 92 Topology.HVACClient[6].udp droppedPkWrongPort:vector(count) ETV
attr interpolationmode none
attr recordingmode vector(count)
attr source packetDropReasonIsNoPortFound(packetDropped)
attr title "packets dropped (wrong port), count"
vector 93 Topology.HVACClient[6].udp droppedPkBadChecksum:vector(count) ETV
attr interpolationmode none
attr recordingmode vector(count)
attr source packetDropReasonIsIncorrectlyReceived(packetDropped)
attr title "packets dropped (checksum error), count"
vector 94 Topology.HVACClient[7].eth[0].phyLayer.interFrameGapInserter interpacketGap:vector ETV
attr interpolationmode sample-hold
attr recordingmode vector
attr source "count(interpacketGapStarted) - count(interpacketGapEnded)"
attr title "interpacket gap state"
attr type int
vector 95 Topology.HVACClient[7].eth[0].phyLayer.transmitter transmitting:vector ETV
attr interpolationmode sample-hold
attr recordingmode vector
attr source "count(transmissionStarted) - count(transmissionEnded)"
attr title "transmitting state"
attr type int
vector 96 Topology.HVACClient[7].udp passedUpPk:vector(count) ETV
attr interpolationmode none
attr recordingmode vector(count)
attr source packetSentToUpper
attr title "packets passed up, count"
vector 97 Topology.HVACClient[7].udp droppedPkWrongPort:vector(count) ETV
attr interpolationmode none
attr recordingmode vector(count)
attr source packetDropReasonIsNoPortFound(packetDropped)
attr title "packets dropped (wrong port), count"
vector 98 Topology.HVACClient[7].udp droppedPkBadChecksum:vector(count) ETV
attr interpolationmode none
attr recordingmode vector(count)
attr source packetDropReasonIsIncorrectlyReceived(packetDropped)
attr title "packets dropped (checksum error), count"
vector 99 Topology.switch1.eth[0].macLayer.queue.transmissionGate[0] gateState:vector ETV
attr enum CLOSED,OPEN
attr interpolationmode sample-hold
attr moduledisplaypath Topology.switch1.eth[0].macLayer.queue.besteffort
attr recordingmode vector
attr source gateStateChanged
attr title "gate state"
attr type enum
vector 100 Topology.switch1.eth[0].macLayer.queue.transmissionGate[0] guardBandState:vector ETV
attr enum ON,OFF
attr interpolationmode sample-hold
attr moduledisplaypath Topology.switch1.eth[0].macLayer.queue.besteffort
attr recordingmode vector
attr source guardBandStateChanged
attr title "guard band state"
attr type enum
vector 101 Topology.switch1.eth[0].macLayer.queue.transmissionGate[1] gateState:vector ETV
attr enum CLOSED,OPEN
attr interpolationmode sample-hold
attr moduledisplaypath Topology.switch1.eth[0].macLayer.queue.video
attr recordingmode vector
attr source gateStateChanged
attr title "gate state"
attr type enum
vector 102 Topology.switch1.eth[0].macLayer.queue.transmissionGate[1] guardBandState:vector ETV
attr enum ON,OFF
attr interpolationmode sample-hold
attr moduledisplaypath Topology.switch1.eth[0].macLayer.queue.video
attr recordingmode vector
attr source guardBandStateChanged
attr title "guard band state"
attr type enum
vector 103 Topology.switch1.eth[1].macLayer.queue.transmissionGate[0] gateState:vector ETV
attr enum CLOSED,OPEN
attr interpolationmode sample-hold
attr moduledisplaypath Topology.switch1.eth[1].macLayer.queue.besteffort
attr recordingmode vector
attr source gateStateChanged
attr title "gate state"
attr type enum
vector 104 Topology.switch1.eth[1].macLayer.queue.transmissionGate[0] guardBandState:vector ETV
attr enum ON,OFF
attr interpolationmode sample-hold
attr moduledisplaypath Topology.switch1.eth[1].macLayer.queue.besteffort
attr recordingmode vector
attr source guardBandStateChanged
attr title "guard band state"
attr type enum
vector 105 Topology.switch1.eth[1].macLayer.queue.transmissionGate[1] gateState:vector ETV
attr enum CLOSED,OPEN
attr interpolationmode sample-hold
attr moduledisplaypath Topology.switch1.eth[1].macLayer.queue.video
attr recordingmode vector
attr source gateStateChanged
attr title "gate state"
attr type enum
vector 106 Topology.switch1.eth[1].macLayer.queue.transmissionGate[1] guardBandState:vector ETV
attr enum ON,OFF
attr interpolationmode sample-hold
attr moduledisplaypath Topology.switch1.eth[1].macLayer.queue.video
attr recordingmode vector
attr source guardBandStateChanged
attr title "guard band state"
attr type enum
vector 107 Topology.switch1.eth[2].macLayer.queue.transmissionGate[0] gateState:vector ETV
attr enum CLOSED,OPEN
attr interpolationmode sample-hold
attr moduledisplaypath Topology.switch1.eth[2].macLayer.queue.besteffort
attr recordingmode vector
attr source gateStateChanged
attr title "gate state"
attr type enum
vector 108 Topology.switch1.eth[2].macLayer.queue.transmissionGate[0] guardBandState:vector ETV
attr enum ON,OFF
attr interpolationmode sample-hold
attr moduledisplaypath Topology.switch1.eth[2].macLayer.queue.besteffort
attr recordingmode vector
attr source guardBandStateChanged
attr title "guard band state"
attr type enum
vector 109 Topology.switch1.eth[2].macLayer.queue.transmissionGate[1] gateState:vector ETV
attr enum CLOSED,OPEN
attr interpolationmode sample-hold
attr moduledisplaypath Topology.switch1.eth[2].macLayer.queue.video
attr recordingmode vector
attr source gateStateChanged
attr title "gate state"
attr type enum
vector 110 Topology.switch1.eth[2].macLayer.queue.transmissionGate[1] guardBandState:vector ETV
attr enum ON,OFF
attr interpolationmode sample-hold
attr moduledisplaypath Topology.switch1.eth[2].macLayer.queue.video
attr recordingmode vector
attr source guardBandStateChanged
attr title "guard band state"
attr type enum
vector 111 Topology.switch1.eth[3].macLayer.queue.transmissionGate[0] gateState:vector ETV
attr enum CLOSED,OPEN
attr interpolationmode sample-hold
attr moduledisplaypath Topology.switch1.eth[3].macLayer.queue.besteffort
attr recordingmode vector
attr source gateStateChanged
attr title "gate state"
attr type enum
vector 112 Topology.switch1.eth[3].macLayer.queue.transmissionGate[0] guardBandState:vector ETV
attr enum ON,OFF
attr interpolationmode sample-hold
attr moduledisplaypath Topology.switch1.eth[3].macLayer.queue.besteffort
attr recordingmode vector
attr source guardBandStateChanged
attr title "guard band state"
attr type enum
vector 113 Topology.switch1.eth[3].macLayer.queue.transmissionGate[1] gateState:vector ETV
attr enum CLOSED,OPEN
attr interpolationmode sample-hold
attr moduledisplaypath Topology.switch1.eth[3].macLayer.queue.video
attr recordingmode vector
attr source gateStateChanged
attr title "gate state"
attr type enum
vector 114 Topology.switch1.eth[3].macLayer.queue.transmissionGate[1] guardBandState:vector ETV
attr enum ON,OFF
attr interpolationmode sample-hold
attr moduledisplaypath Topology.switch1.eth[3].macLayer.queue.video
attr recordingmode vector
attr source guardBandStateChanged
attr title "guard band state"
attr type enum
vector 115 Topology.switch2.eth[0].macLayer.queue.transmissionGate[0] gateState:vector ETV
attr enum CLOSED,OPEN
attr interpolationmode sample-hold
attr moduledisplaypath Topology.switch2.eth[0].macLayer.queue.besteffort
attr recordingmode vector
attr source gateStateChanged
attr title "gate state"
attr type enum
vector 116 Topology.switch2.eth[0].macLayer.queue.transmissionGate[0] guardBandState:vector ETV
attr enum ON,OFF
attr interpolationmode sample-hold
attr moduledisplaypath Topology.switch2.eth[0].macLayer.queue.besteffort
attr recordingmode vector
attr source guardBandStateChanged
attr title "guard band state"
attr type enum
vector 117 Topology.switch2.eth[0].macLayer.queue.transmissionGate[1] gateState:vector ETV
attr enum CLOSED,OPEN
attr interpolationmode sample-hold
attr moduledisplaypath Topology.switch2.eth[0].macLayer.queue.video
attr recordingmode vector
attr source gateStateChanged
attr title "gate state"
attr type enum
vector 118 Topology.switch2.eth[0].macLayer.queue.transmissionGate[1] guardBandState:vector ETV
attr enum ON,OFF
attr interpolationmode sample-hold
attr moduledisplaypath Topology.switch2.eth[0].macLayer.queue.video
attr recordingmode vector
attr source guardBandStateChanged
attr title "guard band state"
attr type enum
vector 119 Topology.switch2.eth[1].macLayer.queue.transmissionGate[0] gateState:vector ETV
attr enum CLOSED,OPEN
attr interpolationmode sample-hold
attr moduledisplaypath Topology.switch2.eth[1].macLayer.queue.besteffort
attr recordingmode vector
attr source gateStateChanged
attr title "gate state"
attr type enum
vector 120 Topology.switch2.eth[1].macLayer.queue.transmissionGate[0] guardBandState:vector ETV
attr enum ON,OFF
attr interpolationmode sample-hold
attr moduledisplaypath Topology.switch2.eth[1].macLayer.queue.besteffort
attr recordingmode vector
attr source guardBandStateChanged
attr title "guard band state"
attr type enum
vector 121 Topology.switch2.eth[1].macLayer.queue.transmissionGate[1] gateState:vector ETV
attr enum CLOSED,OPEN
attr interpolationmode sample-hold
attr moduledisplaypath Topology.switch2.eth[1].macLayer.queue.video
attr recordingmode vector
attr source gateStateChanged
attr title "gate state"
attr type enum
vector 122 Topology.switch2.eth[1].macLayer.queue.transmissionGate[1] guardBandState:vector ETV
attr enum ON,OFF
attr interpolationmode sample-hold
attr moduledisplaypath Topology.switch2.eth[1].macLayer.queue.video
attr recordingmode vector
attr source guardBandStateChanged
attr title "guard band state"
attr type enum
vector 123 Topology.switch2.eth[2].macLayer.queue.transmissionGate[0] gateState:vector ETV
attr enum CLOSED,OPEN
attr interpolationmode sample-hold
attr moduledisplaypath Topology.switch2.eth[2].macLayer.queue.besteffort
attr recordingmode vector
attr source gateStateChanged
attr title "gate state"
attr type enum
vector 124 Topology.switch2.eth[2].macLayer.queue.transmissionGate[0] guardBandState:vector ETV
attr enum ON,OFF
attr interpolationmode sample-hold
attr moduledisplaypath Topology.switch2.eth[2].macLayer.queue.besteffort
attr recordingmode vector
attr source guardBandStateChanged
attr title "guard band state"
attr type enum
vector 125 Topology.switch2.eth[2].macLayer.queue.transmissionGate[1] gateState:vector ETV
attr enum CLOSED,OPEN
attr interpolationmode sample-hold
attr moduledisplaypath Topology.switch2.eth[2].macLayer.queue.video
attr recordingmode vector
attr source gateStateChanged
attr title "gate state"
attr type enum
vector 126 Topology.switch2.eth[2].macLayer.queue.transmissionGate[1] guardBandState:vector ETV
attr enum ON,OFF
attr interpolationmode sample-hold
attr moduledisplaypath Topology.switch2.eth[2].macLayer.queue.video
attr recordingmode vector
attr source guardBandStateChanged
attr title "guard band state"
attr type enum
vector 127 Topology.switch2.eth[3].macLayer.queue.transmissionGate[0] gateState:vector ETV
attr enum CLOSED,OPEN
attr interpolationmode sample-hold
attr moduledisplaypath Topology.switch2.eth[3].macLayer.queue.besteffort
attr recordingmode vector
attr source gateStateChanged
attr title "gate state"
attr type enum
vector 128 Topology.switch2.eth[3].macLayer.queue.transmissionGate[0] guardBandState:vector ETV
attr enum ON,OFF
attr interpolationmode sample-hold
attr moduledisplaypath Topology.switch2.eth[3].macLayer.queue.besteffort
attr recordingmode vector
attr source guardBandStateChanged
attr title "guard band state"
attr type enum
vector 129 Topology.switch2.eth[3].macLayer.queue.transmissionGate[1] gateState:vector ETV
attr enum CLOSED,OPEN
attr interpolationmode sample-hold
attr moduledisplaypath Topology.switch2.eth[3].macLayer.queue.video
attr recordingmode vector
attr source gateStateChanged
attr title "gate state"
attr type enum
vector 130 Topology.switch2.eth[3].macLayer.queue.transmissionGate[1] guardBandState:vector ETV
attr enum ON,OFF
attr interpolationmode sample-hold
attr moduledisplaypath Topology.switch2.eth[3].macLayer.queue.video
attr recordingmode vector
attr source guardBandStateChanged
attr title "guard band state"
attr type enum
vector 131 Topology.switch2.eth[4].macLayer.queue.transmissionGate[0] gateState:vector ETV
attr enum CLOSED,OPEN
attr interpolationmode sample-hold
attr moduledisplaypath Topology.switch2.eth[4].macLayer.queue.besteffort
attr recordingmode vector
attr source gateStateChanged
attr title "gate state"
attr type enum
vector 132 Topology.switch2.eth[4].macLayer.queue.transmissionGate[0] guardBandState:vector ETV
attr enum ON,OFF
attr interpolationmode sample-hold
attr moduledisplaypath Topology.switch2.eth[4].macLayer.queue.besteffort
attr recordingmode vector
attr source guardBandStateChanged
attr title "guard band state"
attr type enum
vector 133 Topology.switch2.eth[4].macLayer.queue.transmissionGate[1] gateState:vector ETV
attr enum CLOSED,OPEN
attr interpolationmode sample-hold
attr moduledisplaypath Topology.switch2.eth[4].macLayer.queue.video
attr recordingmode vector
attr source gateStateChanged
attr title "gate state"
attr type enum
vector 134 Topology.switch2.eth[4].macLayer.queue.transmissionGate[1] guardBandState:vector ETV
attr enum ON,OFF
attr interpolationmode sample-hold
attr moduledisplaypath Topology.switch2.eth[4].macLayer.queue.video
attr recordingmode vector
attr source guardBandStateChanged
attr title "guard band state"
attr type enum
vector 135 Topology.switch3.eth[0].macLayer.queue.transmissionGate[0] gateState:vector ETV
attr enum CLOSED,OPEN
attr interpolationmode sample-hold
attr moduledisplaypath Topology.switch3.eth[0].macLayer.queue.besteffort
attr recordingmode vector
attr source gateStateChanged
attr title "gate state"
attr type enum
vector 136 Topology.switch3.eth[0].macLayer.queue.transmissionGate[0] guardBandState:vector ETV
attr enum ON,OFF
attr interpolationmode sample-hold
attr moduledisplaypath Topology.switch3.eth[0].macLayer.queue.besteffort
attr recordingmode vector
attr source guardBandStateChanged
attr title "guard band state"
attr type enum
vector 137 Topology.switch3.eth[0].macLayer.queue.transmissionGate[1] gateState:vector ETV
attr enum CLOSED,OPEN
attr interpolationmode sample-hold
attr moduledisplaypath Topology.switch3.eth[0].macLayer.queue.video
attr recordingmode vector
attr source gateStateChanged
attr title "gate state"
attr type enum
vector 138 Topology.switch3.eth[0].macLayer.queue.transmissionGate[1] guardBandState:vector ETV
attr enum ON,OFF
attr interpolationmode sample-hold
attr moduledisplaypath Topology.switch3.eth[0].macLayer.queue.video
attr recordingmode vector
attr source guardBandStateChanged
attr title "guard band state"
attr type enum
vector 139 Topology.switch3.eth[1].macLayer.queue.transmissionGate[0] gateState:vector ETV
attr enum CLOSED,OPEN
attr interpolationmode sample-hold
attr moduledisplaypath Topology.switch3.eth[1].macLayer.queue.besteffort
attr recordingmode vector
attr source gateStateChanged
attr title "gate state"
attr type enum
vector 140 Topology.switch3.eth[1].macLayer.queue.transmissionGate[0] guardBandState:vector ETV
attr enum ON,OFF
attr interpolationmode sample-hold
attr moduledisplaypath Topology.switch3.eth[1].macLayer.queue.besteffort
attr recordingmode vector
attr source guardBandStateChanged
attr title "guard band state"
attr type enum
vector 141 Topology.switch3.eth[1].macLayer.queue.transmissionGate[1] gateState:vector ETV
attr enum CLOSED,OPEN
attr interpolationmode sample-hold
attr moduledisplaypath Topology.switch3.eth[1].macLayer.queue.video
attr recordingmode vector
attr source gateStateChanged
attr title "gate state"
attr type enum
vector 142 Topology.switch3.eth[1].macLayer.queue.transmissionGate[1] guardBandState:vector ETV
attr enum ON,OFF
attr interpolationmode sample-hold
attr moduledisplaypath Topology.switch3.eth[1].macLayer.queue.video
attr recordingmode vector
attr source guardBandStateChanged
attr title "guard band state"
attr type enum
vector 143 Topology.switch3.eth[2].macLayer.queue.transmissionGate[0] gateState:vector ETV
attr enum CLOSED,OPEN
attr interpolationmode sample-hold
attr moduledisplaypath Topology.switch3.eth[2].macLayer.queue.besteffort
attr recordingmode vector
attr source gateStateChanged
attr title "gate state"
attr type enum
vector 144 Topology.switch3.eth[2].macLayer.queue.transmissionGate[0] guardBandState:vector ETV
attr enum ON,OFF
attr interpolationmode sample-hold
attr moduledisplaypath Topology.switch3.eth[2].macLayer.queue.besteffort
attr recordingmode vector
attr source guardBandStateChanged
attr title "guard band state"
attr type enum
vector 145 Topology.switch3.eth[2].macLayer.queue.transmissionGate[1] gateState:vector ETV
attr enum CLOSED,OPEN
attr interpolationmode sample-hold
attr moduledisplaypath Topology.switch3.eth[2].macLayer.queue.video
attr recordingmode vector
attr source gateStateChanged
attr title "gate state"
attr type enum
vector 146 Topology.switch3.eth[2].macLayer.queue.transmissionGate[1] guardBandState:vector ETV
attr enum ON,OFF
attr interpolationmode sample-hold
attr moduledisplaypath Topology.switch3.eth[2].macLayer.queue.video
attr recordingmode vector
attr source guardBandStateChanged
attr title "guard band state"
attr type enum
vector 147 Topology.switch3.eth[3].macLayer.queue.transmissionGate[0] gateState:vector ETV
attr enum CLOSED,OPEN
attr interpolationmode sample-hold
attr moduledisplaypath Topology.switch3.eth[3].macLayer.queue.besteffort
attr recordingmode vector
attr source gateStateChanged
attr title "gate state"
attr type enum
vector 148 Topology.switch3.eth[3].macLayer.queue.transmissionGate[0] guardBandState:vector ETV
attr enum ON,OFF
attr interpolationmode sample-hold
attr moduledisplaypath Topology.switch3.eth[3].macLayer.queue.besteffort
attr recordingmode vector
attr source guardBandStateChanged
attr title "guard band state"
attr type enum
vector 149 Topology.switch3.eth[3].macLayer.queue.transmissionGate[1] gateState:vector ETV
attr enum CLOSED,OPEN
attr interpolationmode sample-hold
attr moduledisplaypath Topology.switch3.eth[3].macLayer.queue.video
attr recordingmode vector
attr source gateStateChanged
attr title "gate state"
attr type enum
vector 150 Topology.switch3.eth[3].macLayer.queue.transmissionGate[1] guardBandState:vector ETV
attr enum ON,OFF
attr interpolationmode sample-hold
attr moduledisplaypath Topology.switch3.eth[3].macLayer.queue.video
attr recordingmode vector
attr source guardBandStateChanged
attr title "guard band state"
attr type enum
vector 151 Topology.switch3.eth[4].macLayer.queue.transmissionGate[0] gateState:vector ETV
attr enum CLOSED,OPEN
attr interpolationmode sample-hold
attr moduledisplaypath Topology.switch3.eth[4].macLayer.queue.besteffort
attr recordingmode vector
attr source gateStateChanged
attr title "gate state"
attr type enum
vector 152 Topology.switch3.eth[4].macLayer.queue.transmissionGate[0] guardBandState:vector ETV
attr enum ON,OFF
attr interpolationmode sample-hold
attr moduledisplaypath Topology.switch3.eth[4].macLayer.queue.besteffort
attr recordingmode vector
attr source guardBandStateChanged
attr title "guard band state"
attr type enum
vector 153 Topology.switch3.eth[4].macLayer.queue.transmissionGate[1] gateState:vector ETV
attr enum CLOSED,OPEN
attr interpolationmode sample-hold
attr moduledisplaypath Topology.switch3.eth[4].macLayer.queue.video
attr recordingmode vector
attr source gateStateChanged
attr title "gate state"
attr type enum
vector 154 Topology.switch3.eth[4].macLayer.queue.transmissionGate[1] guardBandState:vector ETV
attr enum ON,OFF
attr interpolationmode sample-hold
attr moduledisplaypath Topology.switch3.eth[4].macLayer.queue.video
attr recordingmode vector
attr source guardBandStateChanged
attr title "guard band state"
attr type enum
vector 155 Topology.switch4.eth[0].macLayer.queue.transmissionGate[0] gateState:vector ETV
attr enum CLOSED,OPEN
attr interpolationmode sample-hold
attr moduledisplaypath Topology.switch4.eth[0].macLayer.queue.besteffort
attr recordingmode vector
attr source gateStateChanged
attr title "gate state"
attr type enum
vector 156 Topology.switch4.eth[0].macLayer.queue.transmissionGate[0] guardBandState:vector ETV
attr enum ON,OFF
attr interpolationmode sample-hold
attr moduledisplaypath Topology.switch4.eth[0].macLayer.queue.besteffort
attr recordingmode vector
attr source guardBandStateChanged
attr title "guard band state"
attr type enum
vector 157 Topology.switch4.eth[0].macLayer.queue.transmissionGate[1] gateState:vector ETV
attr enum CLOSED,OPEN
attr interpolationmode sample-hold
attr moduledisplaypath Topology.switch4.eth[0].macLayer.queue.video
attr recordingmode vector
attr source gateStateChanged
attr title "gate state"
attr type enum
vector 158 Topology.switch4.eth[0].macLayer.queue.transmissionGate[1] guardBandState:vector ETV
attr enum ON,OFF
attr interpolationmode sample-hold
attr moduledisplaypath Topology.switch4.eth[0].macLayer.queue.video
attr recordingmode vector
attr source guardBandStateChanged
attr title "guard band state"
attr type enum
vector 159 Topology.switch4.eth[1].macLayer.queue.transmissionGate[0] gateState:vector ETV
attr enum CLOSED,OPEN
attr interpolationmode sample-hold
attr moduledisplaypath Topology.switch4.eth[1].macLayer.queue.besteffort
attr recordingmode vector
attr source gateStateChanged
attr title "gate state"
attr type enum
vector 160 Topology.switch4.eth[1].macLayer.queue.transmissionGate[0] guardBandState:vector ETV
attr enum ON,OFF
attr interpolationmode sample-hold
attr moduledisplaypath Topology.switch4.eth[1].macLayer.queue.besteffort
attr recordingmode vector
attr source guardBandStateChanged
attr title "guard band state"
attr type enum
vector 161 Topology.switch4.eth[1].macLayer.queue.transmissionGate[1] gateState:vector ETV
attr enum CLOSED,OPEN
attr interpolationmode sample-hold
attr moduledisplaypath Topology.switch4.eth[1].macLayer.queue.video
attr recordingmode vector
attr source gateStateChanged
attr title "gate state"
attr type enum
vector 162 Topology.switch4.eth[1].macLayer.queue.transmissionGate[1] guardBandState:vector ETV
attr enum ON,OFF
attr interpolationmode sample-hold
attr moduledisplaypath Topology.switch4.eth[1].macLayer.queue.video
attr recordingmode vector
attr source guardBandStateChanged
attr title "guard band state"
attr type enum
vector 163 Topology.switch4.eth[2].macLayer.queue.transmissionGate[0] gateState:vector ETV
attr enum CLOSED,OPEN
attr interpolationmode sample-hold
attr moduledisplaypath Topology.switch4.eth[2].macLayer.queue.besteffort
attr recordingmode vector
attr source gateStateChanged
attr title "gate state"
attr type enum
vector 164 Topology.switch4.eth[2].macLayer.queue.transmissionGate[0] guardBandState:vector ETV
attr enum ON,OFF
attr interpolationmode sample-hold
attr moduledisplaypath Topology.switch4.eth[2].macLayer.queue.besteffort
attr recordingmode vector
attr source guardBandStateChanged
attr title "guard band state"
attr type enum
vector 165 Topology.switch4.eth[2].macLayer.queue.transmissionGate[1] gateState:vector ETV
attr enum CLOSED,OPEN
attr interpolationmode sample-hold
attr moduledisplaypath Topology.switch4.eth[2].macLayer.queue.video
attr recordingmode vector
attr source gateStateChanged
attr title "gate state"
attr type enum
vector 166 Topology.switch4.eth[2].macLayer.queue.transmissionGate[1] guardBandState:vector ETV
attr enum ON,OFF
attr interpolationmode sample-hold
attr moduledisplaypath Topology.switch4.eth[2].macLayer.queue.video
attr recordingmode vector
attr source guardBandStateChanged
attr title "guard band state"
attr type enum
vector 167 Topology.switch4.eth[3].macLayer.queue.transmissionGate[0] gateState:vector ETV
attr enum CLOSED,OPEN
attr interpolationmode sample-hold
attr moduledisplaypath Topology.switch4.eth[3].macLayer.queue.besteffort
attr recordingmode vector
attr source gateStateChanged
attr title "gate state"
attr type enum
vector 168 Topology.switch4.eth[3].macLayer.queue.transmissionGate[0] guardBandState:vector ETV
attr enum ON,OFF
attr interpolationmode sample-hold
attr moduledisplaypath Topology.switch4.eth[3].macLayer.queue.besteffort
attr recordingmode vector
attr source guardBandStateChanged
attr title "guard band state"
attr type enum
vector 169 Topology.switch4.eth[3].macLayer.queue.transmissionGate[1] gateState:vector ETV
attr enum CLOSED,OPEN
attr interpolationmode sample-hold
attr moduledisplaypath Topology.switch4.eth[3].macLayer.queue.video
attr recordingmode vector
attr source gateStateChanged
attr title "gate state"
attr type enum
vector 170 Topology.switch4.eth[3].macLayer.queue.transmissionGate[1] guardBandState:vector ETV
attr enum ON,OFF
attr interpolationmode sample-hold
attr moduledisplaypath Topology.switch4.eth[3].macLayer.queue.video
attr recordingmode vector
attr source guardBandStateChanged
attr title "guard band state"
attr type enum
vector 171 Topology.switch5.eth[0].macLayer.queue.transmissionGate[0] gateState:vector ETV
attr enum CLOSED,OPEN
attr interpolationmode sample-hold
attr moduledisplaypath Topology.switch5.eth[0].macLayer.queue.besteffort
attr recordingmode vector
attr source gateStateChanged
attr title "gate state"
attr type enum
vector 172 Topology.switch5.eth[0].macLayer.queue.transmissionGate[0] guardBandState:vector ETV
attr enum ON,OFF
attr interpolationmode sample-hold
attr moduledisplaypath Topology.switch5.eth[0].macLayer.queue.besteffort
attr recordingmode vector
attr source guardBandStateChanged
attr title "guard band state"
attr type enum
vector 173 Topology.switch5.eth[0].macLayer.queue.transmissionGate[1] gateState:vector ETV
attr enum CLOSED,OPEN
attr interpolationmode sample-hold
attr moduledisplaypath Topology.switch5.eth[0].macLayer.queue.video
attr recordingmode vector
attr source gateStateChanged
attr title "gate state"
attr type enum
vector 174 Topology.switch5.eth[0].macLayer.queue.transmissionGate[1] guardBandState:vector ETV
attr enum ON,OFF
attr interpolationmode sample-hold
attr moduledisplaypath Topology.switch5.eth[0].macLayer.queue.video
attr recordingmode vector
attr source guardBandStateChanged
attr title "guard band state"
attr type enum
vector 175 Topology.switch5.eth[1].macLayer.queue.transmissionGate[0] gateState:vector ETV
attr enum CLOSED,OPEN
attr interpolationmode sample-hold
attr moduledisplaypath Topology.switch5.eth[1].macLayer.queue.besteffort
attr recordingmode vector
attr source gateStateChanged
attr title "gate state"
attr type enum
vector 176 Topology.switch5.eth[1].macLayer.queue.transmissionGate[0] guardBandState:vector ETV
attr enum ON,OFF
attr interpolationmode sample-hold
attr moduledisplaypath Topology.switch5.eth[1].macLayer.queue.besteffort
attr recordingmode vector
attr source guardBandStateChanged
attr title "guard band state"
attr type enum
vector 177 Topology.switch5.eth[1].macLayer.queue.transmissionGate[1] gateState:vector ETV
attr enum CLOSED,OPEN
attr interpolationmode sample-hold
attr moduledisplaypath Topology.switch5.eth[1].macLayer.queue.video
attr recordingmode vector
attr source gateStateChanged
attr title "gate state"
attr type enum
vector 178 Topology.switch5.eth[1].macLayer.queue.transmissionGate[1] guardBandState:vector ETV
attr enum ON,OFF
attr interpolationmode sample-hold
attr moduledisplaypath Topology.switch5.eth[1].macLayer.queue.video
attr recordingmode vector
attr source guardBandStateChanged
attr title "guard band state"
attr type enum
vector 179 Topology.switch5.eth[2].macLayer.queue.transmissionGate[0] gateState:vector ETV
attr enum CLOSED,OPEN
attr interpolationmode sample-hold
attr moduledisplaypath Topology.switch5.eth[2].macLayer.queue.besteffort
attr recordingmode vector
attr source gateStateChanged
attr title "gate state"
attr type enum
vector 180 Topology.switch5.eth[2].macLayer.queue.transmissionGate[0] guardBandState:vector ETV
attr enum ON,OFF
attr interpolationmode sample-hold
attr moduledisplaypath Topology.switch5.eth[2].macLayer.queue.besteffort
attr recordingmode vector
attr source guardBandStateChanged
attr title "guard band state"
attr type enum
vector 181 Topology.switch5.eth[2].macLayer.queue.transmissionGate[1] gateState:vector ETV
attr enum CLOSED,OPEN
attr interpolationmode sample-hold
attr moduledisplaypath Topology.switch5.eth[2].macLayer.queue.video
attr recordingmode vector
attr source gateStateChanged
attr title "gate state"
attr type enum
vector 182 Topology.switch5.eth[2].macLayer.queue.transmissionGate[1] guardBandState:vector ETV
attr enum ON,OFF
attr interpolationmode sample-hold
attr moduledisplaypath Topology.switch5.eth[2].macLayer.queue.video
attr recordingmode vector
attr source guardBandStateChanged
attr title "guard band state"
attr type enum
vector 183 Topology.switch6.eth[0].macLayer.queue.transmissionGate[0] gateState:vector ETV
attr enum CLOSED,OPEN
attr interpolationmode sample-hold
attr moduledisplaypath Topology.switch6.eth[0].macLayer.queue.besteffort
attr recordingmode vector
attr source gateStateChanged
attr title "gate state"
attr type enum
vector 184 Topology.switch6.eth[0].macLayer.queue.transmissionGate[0] guardBandState:vector ETV
attr enum ON,OFF
attr interpolationmode sample-hold
attr moduledisplaypath Topology.switch6.eth[0].macLayer.queue.besteffort
attr recordingmode vector
attr source guardBandStateChanged
attr title "guard band state"
attr type enum
vector 185 Topology.switch6.eth[0].macLayer.queue.transmissionGate[1] gateState:vector ETV
attr enum CLOSED,OPEN
attr interpolationmode sample-hold
attr moduledisplaypath Topology.switch6.eth[0].macLayer.queue.video
attr recordingmode vector
attr source gateStateChanged
attr title "gate state"
attr type enum
vector 186 Topology.switch6.eth[0].macLayer.queue.transmissionGate[1] guardBandState:vector ETV
attr enum ON,OFF
attr interpolationmode sample-hold
attr moduledisplaypath Topology.switch6.eth[0].macLayer.queue.video
attr recordingmode vector
attr source guardBandStateChanged
attr title "guard band state"
attr type enum
vector 187 Topology.switch6.eth[1].macLayer.queue.transmissionGate[0] gateState:vector ETV
attr enum CLOSED,OPEN
attr interpolationmode sample-hold
attr moduledisplaypath Topology.switch6.eth[1].macLayer.queue.besteffort
attr recordingmode vector
attr source gateStateChanged
attr title "gate state"
attr type enum
vector 188 Topology.switch6.eth[1].macLayer.queue.transmissionGate[0] guardBandState:vector ETV
attr enum ON,OFF
attr interpolationmode sample-hold
attr moduledisplaypath Topology.switch6.eth[1].macLayer.queue.besteffort
attr recordingmode vector
attr source guardBandStateChanged
attr title "guard band state"
attr type enum
vector 189 Topology.switch6.eth[1].macLayer.queue.transmissionGate[1] gateState:vector ETV
attr enum CLOSED,OPEN
attr interpolationmode sample-hold
attr moduledisplaypath Topology.switch6.eth[1].macLayer.queue.video
attr recordingmode vector
attr source gateStateChanged
attr title "gate state"
attr type enum
vector 190 Topology.switch6.eth[1].macLayer.queue.transmissionGate[1] guardBandState:vector ETV
attr enum ON,OFF
attr interpolationmode sample-hold
attr moduledisplaypath Topology.switch6.eth[1].macLayer.queue.video
attr recordingmode vector
attr source guardBandStateChanged
attr title "guard band state"
attr type enum
vector 191 Topology.switch6.eth[2].macLayer.queue.transmissionGate[0] gateState:vector ETV
attr enum CLOSED,OPEN
attr interpolationmode sample-hold
attr moduledisplaypath Topology.switch6.eth[2].macLayer.queue.besteffort
attr recordingmode vector
attr source gateStateChanged
attr title "gate state"
attr type enum
vector 192 Topology.switch6.eth[2].macLayer.queue.transmissionGate[0] guardBandState:vector ETV
attr enum ON,OFF
attr interpolationmode sample-hold
attr moduledisplaypath Topology.switch6.eth[2].macLayer.queue.besteffort
attr recordingmode vector
attr source guardBandStateChanged
attr title "guard band state"
attr type enum
vector 193 Topology.switch6.eth[2].macLayer.queue.transmissionGate[1] gateState:vector ETV
attr enum CLOSED,OPEN
attr interpolationmode sample-hold
attr moduledisplaypath Topology.switch6.eth[2].macLayer.queue.video
attr recordingmode vector
attr source gateStateChanged
attr title "gate state"
attr type enum
vector 194 Topology.switch6.eth[2].macLayer.queue.transmissionGate[1] guardBandState:vector ETV
attr enum ON,OFF
attr interpolationmode sample-hold
attr moduledisplaypath Topology.switch6.eth[2].macLayer.queue.video
attr recordingmode vector
attr source guardBandStateChanged
attr title "guard band state"
attr type enum
vector 195 Topology.switch7.eth[0].macLayer.queue.transmissionGate[0] gateState:vector ETV
attr enum CLOSED,OPEN
attr interpolationmode sample-hold
attr moduledisplaypath Topology.switch7.eth[0].macLayer.queue.besteffort
attr recordingmode vector
attr source gateStateChanged
attr title "gate state"
attr type enum
vector 196 Topology.switch7.eth[0].macLayer.queue.transmissionGate[0] guardBandState:vector ETV
attr enum ON,OFF
attr interpolationmode sample-hold
attr moduledisplaypath Topology.switch7.eth[0].macLayer.queue.besteffort
attr recordingmode vector
attr source guardBandStateChanged
attr title "guard band state"
attr type enum
vector 197 Topology.switch7.eth[0].macLayer.queue.transmissionGate[1] gateState:vector ETV
attr enum CLOSED,OPEN
attr interpolationmode sample-hold
attr moduledisplaypath Topology.switch7.eth[0].macLayer.queue.video
attr recordingmode vector
attr source gateStateChanged
attr title "gate state"
attr type enum
vector 198 Topology.switch7.eth[0].macLayer.queue.transmissionGate[1] guardBandState:vector ETV
attr enum ON,OFF
attr interpolationmode sample-hold
attr moduledisplaypath Topology.switch7.eth[0].macLayer.queue.video
attr recordingmode vector
attr source guardBandStateChanged
attr title "guard band state"
attr type enum
vector 199 Topology.switch7.eth[1].macLayer.queue.transmissionGate[0] gateState:vector ETV
attr enum CLOSED,OPEN
attr interpolationmode sample-hold
attr moduledisplaypath Topology.switch7.eth[1].macLayer.queue.besteffort
attr recordingmode vector
attr source gateStateChanged
attr title "gate state"
attr type enum
vector 200 Topology.switch7.eth[1].macLayer.queue.transmissionGate[0] guardBandState:vector ETV
attr enum ON,OFF
attr interpolationmode sample-hold
attr moduledisplaypath Topology.switch7.eth[1].macLayer.queue.besteffort
attr recordingmode vector
attr source guardBandStateChanged
attr title "guard band state"
attr type enum
vector 201 Topology.switch7.eth[1].macLayer.queue.transmissionGate[1] gateState:vector ETV
attr enum CLOSED,OPEN
attr interpolationmode sample-hold
attr moduledisplaypath Topology.switch7.eth[1].macLayer.queue.video
attr recordingmode vector
attr source gateStateChanged
attr title "gate state"
attr type enum
vector 202 Topology.switch7.eth[1].macLayer.queue.transmissionGate[1] guardBandState:vector ETV
attr enum ON,OFF
attr interpolationmode sample-hold
attr moduledisplaypath Topology.switch7.eth[1].macLayer.queue.video
attr recordingmode vector
attr source guardBandStateChanged
attr title "guard band state"
attr type enum
vector 203 Topology.switch7.eth[2].macLayer.queue.transmissionGate[0] gateState:vector ETV
attr enum CLOSED,OPEN
attr interpolationmode sample-hold
attr moduledisplaypath Topology.switch7.eth[2].macLayer.queue.besteffort
attr recordingmode vector
attr source gateStateChanged
attr title "gate state"
attr type enum
vector 204 Topology.switch7.eth[2].macLayer.queue.transmissionGate[0] guardBandState:vector ETV
attr enum ON,OFF
attr interpolationmode sample-hold
attr moduledisplaypath Topology.switch7.eth[2].macLayer.queue.besteffort
attr recordingmode vector
attr source guardBandStateChanged
attr title "guard band state"
attr type enum
vector 205 Topology.switch7.eth[2].macLayer.queue.transmissionGate[1] gateState:vector ETV
attr enum CLOSED,OPEN
attr interpolationmode sample-hold
attr moduledisplaypath Topology.switch7.eth[2].macLayer.queue.video
attr recordingmode vector
attr source gateStateChanged
attr title "gate state"
attr type enum
vector 206 Topology.switch7.eth[2].macLayer.queue.transmissionGate[1] guardBandState:vector ETV
attr enum ON,OFF
attr interpolationmode sample-hold
attr moduledisplaypath Topology.switch7.eth[2].macLayer.queue.video
attr recordingmode vector
attr source guardBandStateChanged
attr title "guard band state"
attr type enum
vector 207 Topology.HVACClient[0].app[0].source packetLengths:vector ETV
attr interpolationmode none
attr moduledisplaypath Topology.HVACClient[0].besteffort.source
attr recordingmode vector
attr source packetLength(packetPushed)
attr title "packet lengths"
attr unit b
vector 208 Topology.HVACClient[1].app[0].source packetLengths:vector ETV
attr interpolationmode none
attr moduledisplaypath Topology.HVACClient[1].besteffort.source
attr recordingmode vector
attr source packetLength(packetPushed)
attr title "packet lengths"
attr unit b
vector 209 Topology.HVACClient[2].app[0].source packetLengths:vector ETV
attr interpolationmode none
attr moduledisplaypath Topology.HVACClient[2].besteffort.source
attr recordingmode vector
attr source packetLength(packetPushed)
attr title "packet lengths"
attr unit b
vector 210 Topology.HVACClient[3].app[0].source packetLengths:vector ETV
attr interpolationmode none
attr moduledisplaypath Topology.HVACClient[3].besteffort.source
attr recordingmode vector
attr source packetLength(packetPushed)
attr title "packet lengths"
attr unit b
vector 211 Topology.HVACClient[4].app[0].source packetLengths:vector ETV
attr interpolationmode none
attr moduledisplaypath Topology.HVACClient[4].besteffort.source
attr recordingmode vector
attr source packetLength(packetPushed)
attr title "packet lengths"
attr unit b
vector 212 Topology.HVACClient[5].app[0].source packetLengths:vector ETV
attr interpolationmode none
attr moduledisplaypath Topology.HVACClient[5].besteffort.source
attr recordingmode vector
attr source packetLength(packetPushed)
attr title "packet lengths"
attr unit b
vector 213 Topology.HVACClient[6].app[0].source packetLengths:vector ETV
attr interpolationmode none
attr moduledisplaypath Topology.HVACClient[6].besteffort.source
attr recordingmode vector
attr source packetLength(packetPushed)
attr title "packet lengths"
attr unit b
vector 214 Topology.HVACClient[7].app[0].source packetLengths:vector ETV
attr interpolationmode none
attr moduledisplaypath Topology.HVACClient[7].besteffort.source
attr recordingmode vector
attr source packetLength(packetPushed)
attr title "packet lengths"
attr unit b
vector 215 Topology.HVACClient[0].app[0].io packetSent:vector(packetBytes) ETV
attr interpolationmode none
attr moduledisplaypath Topology.HVACClient[0].besteffort.io
attr recordingmode vector(packetBytes)
attr source packetSent
attr title "packets sent, packetBytes"
vector 216 Topology.HVACClient[1].app[0].io packetSent:vector(packetBytes) ETV
attr interpolationmode none
attr moduledisplaypath Topology.HVACClient[1].besteffort.io
attr recordingmode vector(packetBytes)
attr source packetSent
attr title "packets sent, packetBytes"
vector 217 Topology.HVACClient[2].app[0].io packetSent:vector(packetBytes) ETV
attr interpolationmode none
attr moduledisplaypath Topology.HVACClient[2].besteffort.io
attr recordingmode vector(packetBytes)
attr source packetSent
attr title "packets sent, packetBytes"
vector 218 Topology.HVACClient[3].app[0].io packetSent:vector(packetBytes) ETV
attr interpolationmode none
attr moduledisplaypath Topology.HVACClient[3].besteffort.io
attr recordingmode vector(packetBytes)
attr source packetSent
attr title "packets sent, packetBytes"
vector 219 Topology.HVACClient[4].app[0].io packetSent:vector(packetBytes) ETV
attr interpolationmode none
attr moduledisplaypath Topology.HVACClient[4].besteffort.io
attr recordingmode vector(packetBytes)
attr source packetSent
attr title "packets sent, packetBytes"
vector 220 Topology.HVACClient[5].app[0].io packetSent:vector(packetBytes) ETV
attr interpolationmode none
attr moduledisplaypath Topology.HVACClient[5].besteffort.io
attr recordingmode vector(packetBytes)
attr source packetSent
attr title "packets sent, packetBytes"
vector 221 Topology.HVACClient[6].app[0].io packetSent:vector(packetBytes) ETV
attr interpolationmode none
attr moduledisplaypath Topology.HVACClient[6].besteffort.io
attr recordingmode vector(packetBytes)
attr source packetSent
attr title "packets sent, packetBytes"
vector 222 Topology.HVACClient[7].app[0].io packetSent:vector(packetBytes) ETV
attr interpolationmode none
attr moduledisplaypath Topology.HVACClient[7].besteffort.io
attr recordingmode vector(packetBytes)
attr source packetSent
attr title "packets sent, packetBytes"
vector 223 Topology.HVACClient[0].udp packetSent:vector(packetBytes) ETV
attr interpolationmode none
attr recordingmode vector(packetBytes)
attr source packetSent
attr title "packets sent, packetBytes"
vector 224 Topology.HVACClient[1].udp packetSent:vector(packetBytes) ETV
attr interpolationmode none
attr recordingmode vector(packetBytes)
attr source packetSent
attr title "packets sent, packetBytes"
vector 225 Topology.HVACClient[2].udp packetSent:vector(packetBytes) ETV
attr interpolationmode none
attr recordingmode vector(packetBytes)
attr source packetSent
attr title "packets sent, packetBytes"
vector 226 Topology.HVACClient[3].udp packetSent:vector(packetBytes) ETV
attr interpolationmode none
attr recordingmode vector(packetBytes)
attr source packetSent
attr title "packets sent, packetBytes"
vector 227 Topology.HVACClient[4].udp packetSent:vector(packetBytes) ETV
attr interpolationmode none
attr recordingmode vector(packetBytes)
attr source packetSent
attr title "packets sent, packetBytes"
vector 228 Topology.HVACClient[5].udp packetSent:vector(packetBytes) ETV
attr interpolationmode none
attr recordingmode vector(packetBytes)
attr source packetSent
attr title "packets sent, packetBytes"
vector 229 Topology.HVACClient[6].udp packetSent:vector(packetBytes) ETV
attr interpolationmode none
attr recordingmode vector(packetBytes)
attr source packetSent
attr title "packets sent, packetBytes"
vector 230 Topology.HVACClient[7].udp packetSent:vector(packetBytes) ETV
attr interpolationmode none
attr recordingmode vector(packetBytes)
attr source packetSent
attr title "packets sent, packetBytes"
vector 231 Topology.HVACClient[0].bridging.streamIdentifier.identifier incomingPacketLengths:vector ETV
attr interpolationmode none
attr recordingmode vector
attr source "packetLength(merge(packetPushedIn, packetPulledIn))"
attr title "incoming packet lengths"
attr unit b
vector 232 Topology.HVACClient[0].bridging.streamIdentifier.identifier outgoingPacketLengths:vector ETV
attr interpolationmode none
attr recordingmode vector
attr source "packetLength(merge(packetPushedOut, packetPulledOut))"
attr title "outgoing packet lengths"
attr unit b
vector 233 Topology.HVACClient[0].bridging.streamCoder.encoder incomingPacketLengths:vector ETV
attr interpolationmode none
attr recordingmode vector
attr source "packetLength(merge(packetPushedIn, packetPulledIn))"
attr title "incoming packet lengths"
attr unit b
vector 234 Topology.HVACClient[0].bridging.streamCoder.encoder outgoingPacketLengths:vector ETV
attr interpolationmode none
attr recordingmode vector
attr source "packetLength(merge(packetPushedOut, packetPulledOut))"
attr title "outgoing packet lengths"
attr unit b
vector 235 Topology.HVACClient[0].ieee8021q.qTagHeaderInserter incomingPacketLengths:vector ETV
attr interpolationmode none
attr recordingmode vector
attr source "packetLength(merge(packetPushedIn, packetPulledIn))"
attr title "incoming packet lengths"
attr unit b
vector 236 Topology.HVACClient[0].ieee8021q.qTagHeaderInserter outgoingPacketLengths:vector ETV
attr interpolationmode none
attr recordingmode vector
attr source "packetLength(merge(packetPushedOut, packetPulledOut))"
attr title "outgoing packet lengths"
attr unit b
vector 237 Topology.HVACClient[0].ethernet.macHeaderInserter incomingPacketLengths:vector ETV
attr interpolationmode none
attr recordingmode vector
attr source "packetLength(merge(packetPushedIn, packetPulledIn))"
attr title "incoming packet lengths"
attr unit b
vector 238 Topology.HVACClient[0].ethernet.macHeaderInserter outgoingPacketLengths:vector ETV
attr interpolationmode none
attr recordingmode vector
attr source "packetLength(merge(packetPushedOut, packetPulledOut))"
attr title "outgoing packet lengths"
attr unit b
vector 239 Topology.HVACClient[0].ethernet.paddingInserter incomingPacketLengths:vector ETV
attr interpolationmode none
attr recordingmode vector
attr source "packetLength(merge(packetPushedIn, packetPulledIn))"
attr title "incoming packet lengths"
attr unit b
vector 240 Topology.HVACClient[0].ethernet.paddingInserter outgoingPacketLengths:vector ETV
attr interpolationmode none
attr recordingmode vector
attr source "packetLength(merge(packetPushedOut, packetPulledOut))"
attr title "outgoing packet lengths"
attr unit b
vector 241 Topology.HVACClient[0].ethernet.fcsInserter incomingPacketLengths:vector ETV
attr interpolationmode none
attr recordingmode vector
attr source "packetLength(merge(packetPushedIn, packetPulledIn))"
attr title "incoming packet lengths"
attr unit b
vector 242 Topology.HVACClient[0].ethernet.fcsInserter outgoingPacketLengths:vector ETV
attr interpolationmode none
attr recordingmode vector
attr source "packetLength(merge(packetPushedOut, packetPulledOut))"
attr title "outgoing packet lengths"
attr unit b
vector 243 Topology.HVACClient[0].eth[0].macLayer.queue incomingPacketLengths:vector ETV
attr interpolationmode none
attr recordingmode vector
attr source packetLength(packetPushStarted)
attr title "incoming packet lengths"
attr unit b
vector 244 Topology.HVACClient[0].eth[0].macLayer.queue queueLength:vector ETV
attr autoWarmupFilter false
attr interpolationmode sample-hold
attr recordingmode vector
attr source "warmup(atomic(constant0(packetPushEnded) + count(packetPushStarted) - count(packetPulled) - count(packetRemoved) - count(packetDropped)))"
attr title "queue length"
attr unit pk
vector 245 Topology.HVACClient[0].eth[0].macLayer.queue queueBitLength:vector ETV
attr autoWarmupFilter false
attr interpolationmode sample-hold
attr recordingmode vector
attr source "warmup(atomic(constant0(packetPushEnded) + sum(packetLength(packetPushStarted)) - sum(packetLength(packetPulled)) - sum(packetLength(packetRemoved)) - sum(packetLength(packetDropped))))"
attr title "queue bit length"
attr unit b
vector 246 Topology.HVACClient[1].bridging.streamIdentifier.identifier incomingPacketLengths:vector ETV
attr interpolationmode none
attr recordingmode vector
attr source "packetLength(merge(packetPushedIn, packetPulledIn))"
attr title "incoming packet lengths"
attr unit b
vector 247 Topology.HVACClient[1].bridging.streamIdentifier.identifier outgoingPacketLengths:vector ETV
attr interpolationmode none
attr recordingmode vector
attr source "packetLength(merge(packetPushedOut, packetPulledOut))"
attr title "outgoing packet lengths"
attr unit b
vector 248 Topology.HVACClient[1].bridging.streamCoder.encoder incomingPacketLengths:vector ETV
attr interpolationmode none
attr recordingmode vector
[...]
665	279240 49 196 230 0.00000597 0.00001285 2 0 6.88e-06 6.88e-06 4.73344e-11
666	279289 46 196 230 0.00000597 0.00001285 2 528 528 1056 557568
667	279335 46 196 230 0.00000597 0.00001285 2 528 528 1056 557568
668	279381 46 196 230 0.00000597 0.00001285 2 528 528 1056 557568
669	279427 46 196 230 0.00000597 0.00001285 2 528 528 1056 557568
670	279473 42 196 230 0.00000597 0.00001285 2 0 0 0 0
671	279515 46 196 230 0.00000597 0.00001285 2 528 528 1056 557568
672	279561 46 196 230 0.00000597 0.00001285 2 528 528 1056 557568
673	279607 46 196 230 0.00000597 0.00001285 2 528 528 1056 557568
674	279653 46 196 230 0.00000597 0.00001285 2 528 528 1056 557568
675	279699 46 196 230 0.00000597 0.00001285 2 528 528 1056 557568
676	279745 46 196 230 0.00000597 0.00001285 2 528 528 1056 557568
677	279791 46 196 230 0.00000597 0.00001285 2 592 592 1184 700928
678	279837 46 196 230 0.00000597 0.00001285 2 592 592 1184 700928
679	279883 46 196 230 0.00000597 0.00001285 2 592 592 1184 700928
680	279929 49 197 231 0.00000597 0.00001285 2 0 6.88e-06 6.88e-06 4.73344e-11
681	279978 46 197 231 0.00000597 0.00001285 2 528 528 1056 557568
682	280024 46 197 231 0.00000597 0.00001285 2 528 528 1056 557568
683	280070 46 197 231 0.00000597 0.00001285 2 528 528 1056 557568
684	280116 46 197 231 0.00000597 0.00001285 2 528 528 1056 557568
685	280162 42 197 231 0.00000597 0.00001285 2 0 0 0 0
686	280204 46 197 231 0.00000597 0.00001285 2 528 528 1056 557568
687	280250 46 197 231 0.00000597 0.00001285 2 528 528 1056 557568
688	280296 46 197 231 0.00000597 0.00001285 2 528 528 1056 557568
689	280342 46 197 231 0.00000597 0.00001285 2 528 528 1056 557568
690	280388 46 197 231 0.00000597 0.00001285 2 528 528 1056 557568
691	280434 46 197 231 0.00000597 0.00001285 2 528 528 1056 557568
692	280480 46 197 231 0.00000597 0.00001285 2 592 592 1184 700928
693	280526 46 197 231 0.00000597 0.00001285 2 592 592 1184 700928
694	280572 46 197 231 0.00000597 0.00001285 2 592 592 1184 700928
695	280618 56 214 237 0.00001189 0.00001877 2 5.92e-06 5.92e-06 1.184e-05 7.00928e-11
696	280674 56 215 238 0.00001189 0.00001877 2 5.92e-06 5.92e-06 1.184e-05 7.00928e-11
697	280730 56 216 239 0.00001189 0.00001877 2 5.92e-06 5.92e-06 1.184e-05 7.00928e-11
698	280786 56 217 240 0.00001189 0.00001877 2 5.92e-06 5.92e-06 1.184e-05 7.00928e-11
699	280842 56 218 241 0.00001194 0.00001882 2 5.92e-06 5.92e-06 1.184e-05 7.00928e-11
700	280898 46 218 241 0.00001194 0.00001882 2 592 592 1184 700928
701	280944 46 218 241 0.00001194 0.00001882 2 592 592 1184 700928
702	280990 46 218 241 0.00001194 0.00001882 2 592 592 1184 700928
703	281036 46 218 241 0.00001194 0.00001882 2 528 528 1056 557568
704	281082 46 218 241 0.00001194 0.00001882 2 528 528 1056 557568
705	281128 46 218 241 0.00001194 0.00001882 2 528 528 1056 557568
706	281174 46 218 241 0.00001194 0.00001882 2 528 528 1056 557568
707	281220 46 218 241 0.00001194 0.00001882 2 528 528 1056 557568
708	281266 92 218 242 0.00001194 0.00001882 4 528 528 2112 1115136
709	281358 92 218 242 0.00001194 0.00001882 4 496 496 1984 984064
710	281450 92 218 242 0.00001194 0.00001882 4 496 496 1984 984064
711	281542 92 218 242 0.00001194 0.00001882 4 384 384 1536 589824
712	281634 92 218 242 0.00001194 0.00001882 4 384 384 1536 589824
713	281726 92 218 242 0.00001194 0.00001882 4 352 352 1408 495616
714	281818 92 218 242 0.00001194 0.00001882 4 352 352 1408 495616
715	281910 92 218 242 0.00001194 0.00001882 4 352 352 1408 495616
716	282002 92 218 242 0.00001194 0.00001882 4 352 352 1408 495616
717	282094 92 218 242 0.00001194 0.00001882 4 352 352 1408 495616
718	282186 92 218 242 0.00001194 0.00001882 4 352 352 1408 495616
719	282278 92 218 242 0.00001194 0.00001882 4 352 352 1408 495616
720	282370 92 218 242 0.00001194 0.00001882 4 352 352 1408 495616
721	282462 92 218 242 0.00001194 0.00001882 4 352 352 1408 495616
722	282554 92 218 242 0.00001194 0.00001882 4 352 352 1408 495616
723	282646 92 218 242 0.00001194 0.00001882 4 352 352 1408 495616
724	282738 92 218 242 0.00001194 0.00001882 4 352 352 1408 495616
725	282830 92 218 242 0.00001194 0.00001882 4 384 384 1536 589824
726	282922 92 218 242 0.00001194 0.00001882 4 384 384 1536 589824
727	283014 92 218 242 0.00001194 0.00001882 4 496 496 1984 984064
728	283106 92 218 242 0.00001194 0.00001882 4 496 496 1984 984064
729	283198 92 218 242 0.00001194 0.00001882 4 496 496 1984 984064
730	283290 92 218 242 0.00001194 0.00001882 4 496 496 1984 984064
731	283382 92 218 242 0.00001194 0.00001882 4 528 528 2112 1115136
732	283474 92 218 242 0.00001194 0.00001882 4 528 528 2112 1115136
733	283566 92 218 242 0.00001194 0.00001882 4 528 528 2112 1115136
734	283658 92 218 242 0.00001194 0.00001882 4 528 528 2112 1115136
735	283750 167 218 288 0.00001194 0.00003258 8 0 3 12 24
736	283917 185 218 288 0.00001194 0.00003258 8 0 1584 6336 6690816
737	284102 167 218 288 0.00001194 0.00003258 8 0 3 12 24
738	284269 185 218 288 0.00001194 0.00003258 8 0 1584 6336 6690816
739	284454 56 219 242 0.00001194 0.00001882 2 5.92e-06 5.92e-06 1.184e-05 7.00928e-11
740	284510 46 219 242 0.00001194 0.00001882 2 592 592 1184 700928
741	284556 46 219 242 0.00001194 0.00001882 2 592 592 1184 700928
742	284602 46 219 242 0.00001194 0.00001882 2 592 592 1184 700928
743	284648 46 219 242 0.00001194 0.00001882 2 528 528 1056 557568
744	284694 46 219 242 0.00001194 0.00001882 2 528 528 1056 557568
745	284740 46 219 242 0.00001194 0.00001882 2 528 528 1056 557568
746	284786 46 219 242 0.00001194 0.00001882 2 528 528 1056 557568
747	284832 46 219 242 0.00001194 0.00001882 2 528 528 1056 557568
748	284878 56 220 243 0.00001194 0.00001882 2 5.92e-06 5.92e-06 1.184e-05 7.00928e-11
749	284934 46 220 243 0.00001194 0.00001882 2 592 592 1184 700928
750	284980 46 220 243 0.00001194 0.00001882 2 592 592 1184 700928
751	285026 46 220 243 0.00001194 0.00001882 2 592 592 1184 700928
752	285072 46 220 243 0.00001194 0.00001882 2 528 528 1056 557568
753	285118 46 220 243 0.00001194 0.00001882 2 528 528 1056 557568
754	285164 46 220 243 0.00001194 0.00001882 2 528 528 1056 557568
755	285210 46 220 243 0.00001194 0.00001882 2 528 528 1056 557568
756	285256 46 220 243 0.00001194 0.00001882 2 528 528 1056 557568
757	285302 92 220 244 0.00001194 0.00001882 4 528 528 2112 1115136
758	285394 92 220 244 0.00001194 0.00001882 4 496 496 1984 984064
759	285486 92 220 244 0.00001194 0.00001882 4 496 496 1984 984064
760	285578 92 220 244 0.00001194 0.00001882 4 384 384 1536 589824
761	285670 92 220 244 0.00001194 0.00001882 4 384 384 1536 589824
762	285762 92 220 244 0.00001194 0.00001882 4 352 352 1408 495616
763	285854 92 220 244 0.00001194 0.00001882 4 352 352 1408 495616
764	285946 92 220 244 0.00001194 0.00001882 4 352 352 1408 495616
765	286038 92 220 244 0.00001194 0.00001882 4 352 352 1408 495616
766	286130 92 220 244 0.00001194 0.00001882 4 352 352 1408 495616
767	286222 92 220 244 0.00001194 0.00001882 4 352 352 1408 495616
768	286314 92 220 244 0.00001194 0.00001882 4 352 352 1408 495616
769	286406 92 220 244 0.00001194 0.00001882 4 352 352 1408 495616
770	286498 92 220 244 0.00001194 0.00001882 4 352 352 1408 495616
771	286590 92 220 244 0.00001194 0.00001882 4 352 352 1408 495616
772	286682 92 220 244 0.00001194 0.00001882 4 352 352 1408 495616
773	286774 92 220 244 0.00001194 0.00001882 4 352 352 1408 495616
774	286866 92 220 244 0.00001194 0.00001882 4 384 384 1536 589824
775	286958 92 220 244 0.00001194 0.00001882 4 384 384 1536 589824
776	287050 92 220 244 0.00001194 0.00001882 4 496 496 1984 984064
777	287142 92 220 244 0.00001194 0.00001882 4 496 496 1984 984064
778	287234 92 220 244 0.00001194 0.00001882 4 496 496 1984 984064
779	287326 92 220 244 0.00001194 0.00001882 4 496 496 1984 984064
780	287418 92 220 244 0.00001194 0.00001882 4 528 528 2112 1115136
781	287510 92 220 244 0.00001194 0.00001882 4 528 528 2112 1115136
782	287602 92 220 244 0.00001194 0.00001882 4 528 528 2112 1115136
783	287694 92 220 244 0.00001194 0.00001882 4 528 528 2112 1115136
784	287786 167 220 289 0.00001194 0.00003258 8 0 3 12 24
785	287953 185 220 289 0.00001194 0.00003258 8 0 1584 6336 6690816
786	288138 167 220 289 0.00001194 0.00003258 8 0 3 12 24
787	288305 185 220 289 0.00001194 0.00003258 8 0 1584 6336 6690816
788	288490 56 221 244 0.00001194 0.00001882 2 5.92e-06 5.92e-06 1.184e-05 7.00928e-11
789	288546 46 221 244 0.00001194 0.00001882 2 592 592 1184 700928
790	288592 46 221 244 0.00001194 0.00001882 2 592 592 1184 700928
791	288638 46 221 244 0.00001194 0.00001882 2 592 592 1184 700928
792	288684 46 221 244 0.00001194 0.00001882 2 528 528 1056 557568
793	288730 46 221 244 0.00001194 0.00001882 2 528 528 1056 557568
794	288776 46 221 244 0.00001194 0.00001882 2 528 528 1056 557568
795	288822 46 221 244 0.00001194 0.00001882 2 528 528 1056 557568
796	288868 46 221 244 0.00001194 0.00001882 2 528 528 1056 557568
797	288914 105 222 288 0.00001194 0.00003258 4 0 1.376e-05 2.752e-05 2.840064e-10
798	289019 91 222 288 0.00001194 0.00003258 4 528 528 2112 1115136
799	289110 91 222 288 0.00001194 0.00003258 4 528 528 2112 1115136
800	289201 91 222 288 0.00001194 0.00003258 4 528 528 2112 1115136
801	289292 91 222 288 0.00001194 0.00003258 4 528 528 2112 1115136
802	289383 83 222 288 0.00001194 0.00003258 4 0 0 0 0
803	289466 91 222 288 0.00001194 0.00003258 4 528 528 2112 1115136
804	289557 91 222 288 0.00001194 0.00003258 4 528 528 2112 1115136
805	289648 91 222 288 0.00001194 0.00003258 4 528 528 2112 1115136
806	289739 91 222 288 0.00001194 0.00003258 4 528 528 2112 1115136
807	289830 91 222 288 0.00001194 0.00003258 4 528 528 2112 1115136
808	289921 91 222 288 0.00001194 0.00003258 4 528 528 2112 1115136
809	290012 91 222 288 0.00001194 0.00003258 4 592 592 2368 1401856
810	290103 91 222 288 0.00001194 0.00003258 4 592 592 2368 1401856
811	290194 91 222 288 0.00001194 0.00003258 4 592 592 2368 1401856
812	290285 105 223 289 0.00001194 0.00003258 4 0 1.376e-05 2.752e-05 2.840064e-10
813	290390 91 223 289 0.00001194 0.00003258 4 528 528 2112 1115136
814	290481 91 223 289 0.00001194 0.00003258 4 528 528 2112 1115136
815	290572 91 223 289 0.00001194 0.00003258 4 528 528 2112 1115136
816	290663 91 223 289 0.00001194 0.00003258 4 528 528 2112 1115136
817	290754 83 223 289 0.00001194 0.00003258 4 0 0 0 0
818	290837 91 223 289 0.00001194 0.00003258 4 528 528 2112 1115136
819	290928 91 223 289 0.00001194 0.00003258 4 528 528 2112 1115136
820	291019 91 223 289 0.00001194 0.00003258 4 528 528 2112 1115136
821	291110 91 223 289 0.00001194 0.00003258 4 528 528 2112 1115136
822	291201 91 223 289 0.00001194 0.00003258 4 528 528 2112 1115136
823	291292 91 223 289 0.00001194 0.00003258 4 528 528 2112 1115136
824	291383 91 223 289 0.00001194 0.00003258 4 592 592 2368 1401856
825	291474 91 223 289 0.00001194 0.00003258 4 592 592 2368 1401856
826	291565 91 223 289 0.00001194 0.00003258 4 592 592 2368 1401856
827	291656 111 232 296 0.00001786 0.0000385 4 5.92e-06 5.92e-06 2.368e-05 1.401856e-10
828	291767 111 233 297 0.00001786 0.0000385 4 5.92e-06 5.92e-06 2.368e-05 1.401856e-10
829	291878 112 234 298 0.00001791 0.00003855 4 5.92e-06 5.92e-06 2.368e-05 1.401856e-10
830	291990 92 234 298 0.00001791 0.00003855 4 592 592 2368 1401856
831	292082 92 234 298 0.00001791 0.00003855 4 592 592 2368 1401856
832	292174 92 234 298 0.00001791 0.00003855 4 592 592 2368 1401856
833	292266 92 234 298 0.00001791 0.00003855 4 528 528 2112 1115136
834	292358 92 234 298 0.00001791 0.00003855 4 528 528 2112 1115136
835	292450 92 234 298 0.00001791 0.00003855 4 528 528 2112 1115136
836	292542 92 234 298 0.00001791 0.00003855 4 528 528 2112 1115136
837	292634 92 234 298 0.00001791 0.00003855 4 528 528 2112 1115136
838	292726 184 234 299 0.00001791 0.00003855 8 528 528 4224 2230272
839	292910 184 234 299 0.00001791 0.00003855 8 496 496 3968 1968128
840	293094 184 234 299 0.00001791 0.00003855 8 496 496 3968 1968128
841	293278 184 234 299 0.00001791 0.00003855 8 384 384 3072 1179648
842	293462 184 234 299 0.00001791 0.00003855 8 384 384 3072 1179648
843	293646 184 234 299 0.00001791 0.00003855 8 352 352 2816 991232
844	293830 184 234 299 0.00001791 0.00003855 8 352 352 2816 991232
845	294014 184 234 299 0.00001791 0.00003855 8 352 352 2816 991232
846	294198 184 234 299 0.00001791 0.00003855 8 352 352 2816 991232
847	294382 184 234 299 0.00001791 0.00003855 8 352 352 2816 991232
848	294566 184 234 299 0.00001791 0.00003855 8 352 352 2816 991232
849	294750 184 234 299 0.00001791 0.00003855 8 352 352 2816 991232
850	294934 184 234 299 0.00001791 0.00003855 8 352 352 2816 991232
851	295118 184 234 299 0.00001791 0.00003855 8 352 352 2816 991232
852	295302 184 234 299 0.00001791 0.00003855 8 352 352 2816 991232
853	295486 184 234 299 0.00001791 0.00003855 8 352 352 2816 991232
854	295670 184 234 299 0.00001791 0.00003855 8 352 352 2816 991232
855	295854 184 234 299 0.00001791 0.00003855 8 384 384 3072 1179648
856	296038 184 234 299 0.00001791 0.00003855 8 384 384 3072 1179648
857	296222 184 234 299 0.00001791 0.00003855 8 496 496 3968 1968128
858	296406 184 234 299 0.00001791 0.00003855 8 496 496 3968 1968128
859	296590 184 234 299 0.00001791 0.00003855 8 496 496 3968 1968128
860	296774 184 234 299 0.00001791 0.00003855 8 496 496 3968 1968128
861	296958 184 234 299 0.00001791 0.00003855 8 528 528 4224 2230272
862	297142 184 234 299 0.00001791 0.00003855 8 528 528 4224 2230272
863	297326 184 234 299 0.00001791 0.00003855 8 528 528 4224 2230272
864	297510 184 234 299 0.00001791 0.00003855 8 528 528 4224 2230272
865	297694 336 234 339 0.00001791 0.00006607 16 0 5 40 128
866	298030 378 234 339 0.00001791 0.00006607 16 0 2640 21120 35684352
867	298408 336 234 339 0.00001791 0.00006607 16 0 5 40 128
868	298744 378 234 339 0.00001791 0.00006607 16 0 2640 21120 35684352
869	299122 112 235 299 0.00001791 0.00003855 4 5.92e-06 5.92e-06 2.368e-05 1.401856e-10
870	299234 92 235 299 0.00001791 0.00003855 4 592 592 2368 1401856
871	299326 92 235 299 0.00001791 0.00003855 4 592 592 2368 1401856
872	299418 92 235 299 0.00001791 0.00003855 4 592 592 2368 1401856
873	299510 92 235 299 0.00001791 0.00003855 4 528 528 2112 1115136
874	299602 92 235 299 0.00001791 0.00003855 4 528 528 2112 1115136
875	299694 92 235 299 0.00001791 0.00003855 4 528 528 2112 1115136
876	299786 92 235 299 0.00001791 0.00003855 4 528 528 2112 1115136
877	299878 92 235 299 0.00001791 0.00003855 4 528 528 2112 1115136
878	299970 222 236 339 0.00001791 0.00006607 8 0 2.752e-05 0.00011008 2.0827136e-09
879	300192 184 236 339 0.00001791 0.00006607 8 528 528 4224 2230272
880	300376 184 236 339 0.00001791 0.00006607 8 528 528 4224 2230272
881	300560 184 236 339 0.00001791 0.00006607 8 528 528 4224 2230272
882	300744 184 236 339 0.00001791 0.00006607 8 528 528 4224 2230272
883	300928 168 236 339 0.00001791 0.00006607 8 0 0 0 0
884	301096 184 236 339 0.00001791 0.00006607 8 528 528 4224 2230272
885	301280 184 236 339 0.00001791 0.00006607 8 528 528 4224 2230272
886	301464 184 236 339 0.00001791 0.00006607 8 528 528 4224 2230272
887	301648 184 236 339 0.00001791 0.00006607 8 528 528 4224 2230272
888	301832 184 236 339 0.00001791 0.00006607 8 528 528 4224 2230272
889	302016 184 236 339 0.00001791 0.00006607 8 528 528 4224 2230272
890	302200 184 236 339 0.00001791 0.00006607 8 592 592 4736 2803712
891	302384 184 236 339 0.00001791 0.00006607 8 592 592 4736 2803712
892	302568 184 236 339 0.00001791 0.00006607 8 592 592 4736 2803712
893	302752 224 257 340 0.00002383 0.00007199 8 5.92e-06 5.92e-06 4.736e-05 2.803712e-10
894	302976 223 258 341 0.00002388 0.00007204 8 5.92e-06 5.92e-06 4.736e-05 2.803712e-10
895	303199 183 258 341 0.00002388 0.00007204 8 592 592 4736 2803712
896	303382 183 258 341 0.00002388 0.00007204 8 592 592 4736 2803712
897	303565 183 258 341 0.00002388 0.00007204 8 592 592 4736 2803712
898	303748 183 258 341 0.00002388 0.00007204 8 528 528 4224 2230272
899	303931 183 258 341 0.00002388 0.00007204 8 528 528 4224 2230272
900	304114 183 258 341 0.00002388 0.00007204 8 528 528 4224 2230272
901	304297 183 258 341 0.00002388 0.00007204 8 528 528 4224 2230272
902	304480 183 258 341 0.00002388 0.00007204 8 528 528 4224 2230272
903	304663 183 258 341 0.00002388 0.00007204 8 528 528 4224 2230272
904	304846 183 258 341 0.00002388 0.00007204 8 496 496 3968 1968128
905	305029 183 258 341 0.00002388 0.00007204 8 496 496 3968 1968128
906	305212 183 258 341 0.00002388 0.00007204 8 384 384 3072 1179648
907	305395 183 258 341 0.00002388 0.00007204 8 384 384 3072 1179648
908	305578 183 258 341 0.00002388 0.00007204 8 352 352 2816 991232
909	305761 183 258 341 0.00002388 0.00007204 8 352 352 2816 991232
910	305944 183 258 341 0.00002388 0.00007204 8 352 352 2816 991232
911	306127 175 260 343 0.00002388 0.00007204 8 24 24 192 4608
912	306302 175 261 344 0.00002388 0.00007204 8 16 16 128 2048
913	306477 183 262 345 0.00002388 0.00007204 8 128 128 1024 131072
914	306660 183 262 345 0.00002388 0.00007204 8 128 128 1024 131072
915	306843 201 279 345 0.00002388 0.00006516 7 2.388e-05 6.516e-05 0.00031164 1.5199576e-08
916	307044 196 279 345 0.00002388 0.00006516 7 6.88e-06 2.388e-05 6.516e-05 8.542608e-10
917	307240 197 279 345 0.00002388 0.00006516 7 -2.064e-05 0 -7.224e-05 1.0768576e-09
918	307437 254 279 345 0.00002388 0.00006516 7 0 1.3760000002134e-05 5.1989196514951e-05 5.2462293349564e-10
100	307691 19 371 371 0.000502 0.000502 1 0 0 0 0
102	307710 19 371 371 0.000502 0.000502 1 0 0 0 0
104	307729 19 371 371 0.000502 0.000502 1 0 0 0 0
106	307748 19 371 371 0.000502 0.000502 1 0 0 0 0
108	307767 19 371 371 0.000502 0.000502 1 0 0 0 0
110	307786 19 371 371 0.000502 0.000502 1 0 0 0 0
112	307805 19 371 371 0.000502 0.000502 1 0 0 0 0
114	307824 19 371 371 0.000502 0.000502 1 0 0 0 0
116	307843 19 371 371 0.000502 0.000502 1 0 0 0 0
118	307862 19 371 371 0.000502 0.000502 1 0 0 0 0
120	307881 19 371 371 0.000502 0.000502 1 0 0 0 0
122	307900 19 371 371 0.000502 0.000502 1 0 0 0 0
124	307919 19 371 371 0.000502 0.000502 1 0 0 0 0
126	307938 19 371 371 0.000502 0.000502 1 0 0 0 0
128	307957 19 371 371 0.000502 0.000502 1 0 0 0 0
130	307976 19 371 371 0.000502 0.000502 1 0 0 0 0
132	307995 19 371 371 0.000502 0.000502 1 0 0 0 0
134	308014 19 371 371 0.000502 0.000502 1 0 0 0 0
136	308033 19 371 371 0.000502 0.000502 1 0 0 0 0
138	308052 19 371 371 0.000502 0.000502 1 0 0 0 0
140	308071 19 371 371 0.000502 0.000502 1 0 0 0 0
142	308090 19 371 371 0.000502 0.000502 1 0 0 0 0
144	308109 19 371 371 0.000502 0.000502 1 0 0 0 0
146	308128 19 371 371 0.000502 0.000502 1 0 0 0 0
148	308147 19 371 371 0.000502 0.000502 1 0 0 0 0
150	308166 19 371 371 0.000502 0.000502 1 0 0 0 0
152	308185 19 371 371 0.000502 0.000502 1 0 0 0 0
154	308204 19 371 371 0.000502 0.000502 1 0 0 0 0
156	308223 19 371 371 0.000502 0.000502 1 0 0 0 0
158	308242 19 371 371 0.000502 0.000502 1 0 0 0 0
160	308261 19 371 371 0.000502 0.000502 1 0 0 0 0
162	308280 19 371 371 0.000502 0.000502 1 0 0 0 0
164	308299 19 371 371 0.000502 0.000502 1 0 0 0 0
166	308318 19 371 371 0.000502 0.000502 1 0 0 0 0
168	308337 19 371 371 0.000502 0.000502 1 0 0 0 0
170	308356 19 371 371 0.000502 0.000502 1 0 0 0 0
172	308375 19 371 371 0.000502 0.000502 1 0 0 0 0
174	308394 19 371 371 0.000502 0.000502 1 0 0 0 0
176	308413 19 371 371 0.000502 0.000502 1 0 0 0 0
178	308432 19 371 371 0.000502 0.000502 1 0 0 0 0
180	308451 19 371 371 0.000502 0.000502 1 0 0 0 0
182	308470 19 371 371 0.000502 0.000502 1 0 0 0 0
184	308489 19 371 371 0.000502 0.000502 1 0 0 0 0
186	308508 19 371 371 0.000502 0.000502 1 0 0 0 0
188	308527 19 371 371 0.000502 0.000502 1 0 0 0 0
190	308546 19 371 371 0.000502 0.000502 1 0 0 0 0
192	308565 19 371 371 0.000502 0.000502 1 0 0 0 0
194	308584 19 371 371 0.000502 0.000502 1 0 0 0 0
196	308603 19 371 371 0.000502 0.000502 1 0 0 0 0
198	308622 19 371 371 0.000502 0.000502 1 0 0 0 0
200	308641 19 371 371 0.000502 0.000502 1 0 0 0 0
202	308660 19 371 371 0.000502 0.000502 1 0 0 0 0
204	308679 19 371 371 0.000502 0.000502 1 0 0 0 0
206	308698 19 371 371 0.000502 0.000502 1 0 0 0 0

