version 3
run config2-0-20241210-08:19:26-30349
attr configname config2
attr datetime 20241210-08:19:26
attr datetimef 20241210-081926
attr experiment config2
attr inifile omnetpp.ini
attr iterationvars ""
attr iterationvarsd ""
attr iterationvarsf ""
attr measurement ""
attr network Topology
attr processid 30349
attr repetition 0
attr replication #0
attr resultdir results
attr runnumber 0
attr seedset 0
config image-path ../../../Downloads/TSN5G-master/inet4.5/images:../../simu5G/images
config extends General
config *.server.app[1..30].source.packetNameFormat "\"%h-%c-0\""
config *.server.app[3].source.initialProductionOffset 10.0ms
config *.server.app[4].source.initialProductionOffset 10.0184ms
config *.server.app[16].source.initialProductionOffset 10.0368ms
config *.server.app[24].source.initialProductionOffset 10.068ms
config *.server.app[23].source.initialProductionOffset 10.0928ms
config *.server.app[6].source.initialProductionOffset 10.1176ms
config *.server.app[2].source.initialProductionOffset 10.136ms
config *.server.app[7].source.initialProductionOffset 10.1544ms
config *.server.app[18].source.initialProductionOffset 10.1728ms
config *.server.app[9].source.initialProductionOffset 10.204ms
config *.server.app[1].source.initialProductionOffset 10.2224ms
config *.server.app[29].source.initialProductionOffset 10.2408ms
config *.server.app[20].source.initialProductionOffset 10.2656ms
config *.server.app[19].source.initialProductionOffset 10.2968ms
config *.server.app[15].source.initialProductionOffset 10.328ms
config *.server.app[28].source.initialProductionOffset 10.3592ms
config *.server.app[17].source.initialProductionOffset 10.384ms
config *.server.app[13].source.initialProductionOffset 10.4152ms
config *.server.app[25].source.initialProductionOffset 10.4464ms
config *.server.app[14].source.initialProductionOffset 10.4712ms
config *.server.app[8].source.initialProductionOffset 10.5024ms
config *.server.app[26].source.initialProductionOffset 10.5208ms
config *.server.app[27].source.initialProductionOffset 10.5456ms
config *.server.app[10].source.initialProductionOffset 10.5704ms
config *.server.app[22].source.initialProductionOffset 10.5888ms
config *.server.app[5].source.initialProductionOffset 10.6136ms
config *.server.app[11].source.initialProductionOffset 10.632ms
config *.server.app[21].source.initialProductionOffset 10.6632ms
config *.server.app[12].source.initialProductionOffset 10.688ms
config *.server.app[30].source.initialProductionOffset 10.7192ms
config *.switch*.eth[1].macLayer.queue.transmissionGate[0].offset 10ms
config *.switch1.eth[3].macLayer.queue.transmissionGate[0].durations []
config *.switch1.eth[2].macLayer.queue.transmissionGate[0].durations []
config *.switch2.eth[3].macLayer.queue.transmissionGate[0].durations "[1.001ms, 0.117ms, 0.883ms, 0.117ms, 0.883ms, 0.117ms, 0.883ms, 0.117ms, 0.883ms, 0.117ms, 0.054ms, 0.828ms]"
config *.switch2.eth[4].macLayer.queue.transmissionGate[0].durations []
config *.switch2.eth[2].macLayer.queue.transmissionGate[0].durations []
config *.switch3.eth[3].macLayer.queue.transmissionGate[0].durations "[2.001ms, 0.3ms, 1.7ms, 0.3ms, 0.7ms, 0.999ms]"
config *.switch3.eth[4].macLayer.queue.transmissionGate[0].durations []
config *.switch3.eth[2].macLayer.queue.transmissionGate[0].durations []
config *.switch4.eth[3].macLayer.queue.transmissionGate[0].durations "[0.076ms, 0.42ms, 1.035ms, 0.469ms, 1.001ms, 0.495ms, 0.035ms, 0.469ms, 1.001ms, 0.999ms]"
config *.switch4.eth[2].macLayer.queue.transmissionGate[0].durations []
config *.switch5.eth[0].macLayer.queue.transmissionGate[0].durations "[0.485ms, 0.196ms, 0.32ms, 0.135ms, 0.865ms, 0.135ms, 0.349ms, 0.232ms, 0.284ms, 0.135ms, 0.349ms, 0.196ms, 0.32ms, 0.135ms, 0.349ms, 0.232ms, 0.284ms, 0.135ms, 0.349ms, 0.515ms]"
config *.switch5.eth[1].macLayer.queue.transmissionGate[0].durations "[0.119ms, 0.135ms, 0.101ms, 0.216ms, 1.001ms, 0.428ms, 0.119ms, 0.204ms, 0.032ms, 0.216ms, 1.001ms, 0.428ms, 0.119ms, 0.204ms, 0.032ms, 0.216ms, 0.548ms, 0.881ms]"
config *.switch5.eth[2].macLayer.queue.transmissionGate[0].durations []
config *.switch6.eth[0].macLayer.queue.transmissionGate[0].durations "[0.212ms, 0.117ms, 1.883ms, 0.117ms, 0.118ms, 0.553ms, 1.212ms, 0.117ms, 0.118ms, 1.553ms]"
config *.switch6.eth[1].macLayer.queue.transmissionGate[0].durations "[0.237ms, 0.185ms, 1.092ms, 0.486ms, 1.237ms, 0.185ms, 0.366ms, 0.212ms, 1.001ms, 0.999ms]"
config *.switch6.eth[2].macLayer.queue.transmissionGate[0].durations []
config *.switch7.eth[2].macLayer.queue.transmissionGate[0].durations "[0.342ms, 0.16ms, 0.225ms, 0.273ms, 0.223ms, 0.279ms, 0.069ms, 0.429ms, 0.342ms, 0.16ms, 0.2ms, 0.298ms, 0.248ms, 0.254ms, 0.225ms, 0.273ms, 0.342ms, 0.16ms, 0.2ms, 0.298ms, 0.223ms, 0.279ms, 0.069ms, 0.429ms]"
config *.switch7.eth[1].macLayer.queue.transmissionGate[0].durations "[1.541ms, 0.521ms, 0.143ms, 0.118ms, 0.218ms, 0.459ms, 0.063ms, 0.229ms, 0.249ms, 0.521ms, 0.143ms, 0.118ms, 0.74ms, 0.937ms]"
config network Topology
config *.switch1.macTable.forwardingTable "[{address:\"0A-AA-00-00-00-01\", interface:\"eth2\"}]"
config *.switch2.macTable.forwardingTable "[{address:\"0A-AA-00-00-00-01\", interface:\"eth2\"}]"
config *.switch3.macTable.forwardingTable "[{address:\"0A-AA-00-00-00-01\", interface:\"eth2\"}]"
config *.switch4.macTable.forwardingTable "[{address:\"0A-AA-00-00-00-01\", interface:\"eth2\"}]"
config *.switch5.macTable.forwardingTable "[{address:\"0A-AA-00-00-00-01\", interface:\"eth2\"}]"
config *.switch6.macTable.forwardingTable "[{address:\"0A-AA-00-00-00-01\", interface:\"eth2\"}]"
config *.switch7.macTable.forwardingTable "[{address:\"0A-AA-00-00-00-01\", interface:\"eth0\"}]"
config **.selector.filePath "\"/home/simu5g/simu5g-workspace/test/iatest/path.txt\""
config **.ipv4.arp.typename GlobalArp
config *.*.hasOutgoingStreams true
config *.*Client*.bridging.streamIdentifier.identifier.mapping "[{stream: \"besteffort\", packetFilter: expr(has(udp) && udp.destPort == 1000)},\n\t\t\t\t\t\t\t\t\t\t\t\t\t\t\t{stream: \"video\", packetFilter: expr(has(udp) && udp.destPort == 1001)}]"
config *.*Client*.bridging.streamCoder.encoder.mapping "[{stream: \"besteffort\", pcp: 0},\n\t\t\t\t\t\t\t\t\t\t\t\t\t{stream: \"video\", pcp: 4}]"
config *.server.bridging.streamIdentifier.identifier.mapping "[{stream: \"besteffort\", packetFilter: expr(has(udp) && udp.destPort == 1000)},\n\t\t\t\t\t\t\t\t\t\t\t\t\t\t\t{stream: \"video\", packetFilter: expr(has(udp) && udp.destPort == 1001)}]"
config *.server.bridging.streamCoder.encoder.mapping "[{stream: \"besteffort\", pcp: 0},\n\t\t\t\t\t\t\t\t\t\t\t\t\t{stream: \"video\", pcp: 4}]"
config *.switch*.hasEgressTrafficShaping true
config *.switch*.bridging.directionReverser.reverser.excludeEncapsulationProtocols "[\"ieee8021qctag\"]"
config *.switch*.bridging.streamIdentifier.identifier.mapping "[{stream: \"besteffort\", packetFilter: expr(has(udp) && udp.destPort == 1000)},\n\t\t\t\t\t\t\t\t\t\t\t\t\t\t\t{stream: \"video\", packetFilter: expr(has(udp) && udp.destPort == 1001)}]"
config *.switch*.bridging.streamCoder.encoder.mapping "[{stream: \"besteffort\", pcp: 0},\n\t\t\t\t\t\t\t\t\t\t\t\t\t{stream: \"video\", pcp: 4}]"
config *.switch*.bridging.streamCoder.decoder.mapping "[{pcp: 0, stream: \"besteffort\"},\n                                                 {pcp: 4, stream: \"video\"}]"
config *.switch*.eth[*].macLayer.queue.numTrafficClasses 2
config *.switch*.eth[*].macLayer.queue.*[0].display-name besteffort
config *.switch*.eth[*].macLayer.queue.*[1].display-name video
config *.*Client*.numApps 3
config *.*Client*.app[0].typename UdpSourceApp
config *.*Client*.app[0].display-name besteffort
config *.*Client*.app[0].io.destAddress "\"server\""
config *.*Client*.app[0].io.destPort 1000
config *.*Client*.app[0].io.localPort 1002
config *.*Client*.app[0].source.packetLength 16B
config *.*Client*.app[0].source.productionInterval 2ms
config *.*Client*.app[0].source.initialProductionOffset 0s
config *.*Client*.app[1].typename UdpSinkApp
config *.*Client*.app[1].display-name video
config *.*Client*.app[1].io.localPort 1001
config *.*Client*.app[2].typename UdpSinkApp
config *.*Client*.app[2].display-name besteffort
config *.*Client*.app[2].io.localPort 1000
config *.server.numApps 31
config *.server.app[0].typename UdpSinkApp
config *.server.app[0].display-name besteffort
config *.server.app[0].io.localPort 1000
config *.server.app[1..30].typename UdpSourceApp
config *.server.app[1..30].display-name video
config *.server.app[11..20].display-name besteffort
config *.server.app[1..30].io.destPort 1001
config *.server.app[1..30].io.localPort 1000+ancestorIndex(1)
config *.server.app[1..10].source.packetLength 160B
config *.server.app[11..20].source.packetLength 320B
config *.server.app[21..30].source.packetLength 240B
config *.server.app[1..10].source.productionInterval 1ms
config *.server.app[11..20].source.productionInterval 2ms
config *.server.app[21..30].source.productionInterval 3ms
config *.server.app[1..5].io.destAddress "\"HVACClient[0]\""
config *.server.app[6..9].io.destAddress "\"HVACClient[1]\""
config *.server.app[10..14].io.destAddress "\"HVACClient[2]\""
config *.server.app[15..16].io.destAddress "\"HVACClient[3]\""
config *.server.app[17..20].io.destAddress "\"HVACClient[4]\""
config *.server.app[21..23].io.destAddress "\"HVACClient[5]\""
config *.server.app[24..27].io.destAddress "\"HVACClient[6]\""
config *.server.app[28..30].io.destAddress "\"HVACClient[7]\""

vector 0 Topology.server.eth[0].phyLayer.interFrameGapInserter interpacketGap:vector ETV
attr interpolationmode sample-hold
attr recordingmode vector
attr source "count(interpacketGapStarted) - count(interpacketGapEnded)"
attr title "interpacket gap state"
attr type int
vector 1 Topology.server.eth[0].phyLayer.transmitter transmitting:vector ETV
attr interpolationmode sample-hold
attr recordingmode vector
attr source "count(transmissionStarted) - count(transmissionEnded)"
attr title "transmitting state"
attr type int
vector 2 Topology.server.udp passedUpPk:vector(count) ETV
attr interpolationmode none
attr recordingmode vector(count)
attr source packetSentToUpper
attr title "packets passed up, count"
vector 3 Topology.server.udp droppedPkWrongPort:vector(count) ETV
attr interpolationmode none
attr recordingmode vector(count)
attr source packetDropReasonIsNoPortFound(packetDropped)
attr title "packets dropped (wrong port), count"
vector 4 Topology.server.udp droppedPkBadChecksum:vector(count) ETV
attr interpolationmode none
attr recordingmode vector(count)
attr source packetDropReasonIsIncorrectlyReceived(packetDropped)
attr title "packets dropped (checksum error), count"
vector 5 Topology.switch1.eth[0].phyLayer.interFrameGapInserter interpacketGap:vector ETV
attr interpolationmode sample-hold
attr recordingmode vector
attr source "count(interpacketGapStarted) - count(interpacketGapEnded)"
attr title "interpacket gap state"
attr type int
vector 6 Topology.switch1.eth[0].phyLayer.transmitter transmitting:vector ETV
attr interpolationmode sample-hold
attr recordingmode vector
attr source "count(transmissionStarted) - count(transmissionEnded)"
attr title "transmitting state"
attr type int
vector 7 Topology.switch1.eth[1].phyLayer.interFrameGapInserter interpacketGap:vector ETV
attr interpolationmode sample-hold
attr recordingmode vector
attr source "count(interpacketGapStarted) - count(interpacketGapEnded)"
attr title "interpacket gap state"
attr type int
vector 8 Topology.switch1.eth[1].phyLayer.transmitter transmitting:vector ETV
attr interpolationmode sample-hold
attr recordingmode vector
attr source "count(transmissionStarted) - count(transmissionEnded)"
attr title "transmitting state"
attr type int
vector 9 Topology.switch1.eth[2].phyLayer.interFrameGapInserter interpacketGap:vector ETV
attr interpolationmode sample-hold
attr recordingmode vector
attr source "count(interpacketGapStarted) - count(interpacketGapEnded)"
attr title "interpacket gap state"
attr type int
vector 10 Topology.switch1.eth[2].phyLayer.transmitter transmitting:vector ETV
attr interpolationmode sample-hold
attr recordingmode vector
attr source "count(transmissionStarted) - count(transmissionEnded)"
attr title "transmitting state"
attr type int
vector 11 Topology.switch1.eth[3].phyLayer.interFrameGapInserter interpacketGap:vector ETV
attr interpolationmode sample-hold
attr recordingmode vector
attr source "count(interpacketGapStarted) - count(interpacketGapEnded)"
attr title "interpacket gap state"
attr type int
vector 12 Topology.switch1.eth[3].phyLayer.transmitter transmitting:vector ETV
attr interpolationmode sample-hold
attr recordingmode vector
attr source "count(transmissionStarted) - count(transmissionEnded)"
attr title "transmitting state"
attr type int
vector 13 Topology.switch2.eth[0].phyLayer.interFrameGapInserter interpacketGap:vector ETV
attr interpolationmode sample-hold
attr recordingmode vector
attr source "count(interpacketGapStarted) - count(interpacketGapEnded)"
attr title "interpacket gap state"
attr type int
vector 14 Topology.switch2.eth[0].phyLayer.transmitter transmitting:vector ETV
attr interpolationmode sample-hold
attr recordingmode vector
attr source "count(transmissionStarted) - count(transmissionEnded)"
attr title "transmitting state"
attr type int
vector 15 Topology.switch2.eth[1].phyLayer.interFrameGapInserter interpacketGap:vector ETV
attr interpolationmode sample-hold
attr recordingmode vector
attr source "count(interpacketGapStarted) - count(interpacketGapEnded)"
attr title "interpacket gap state"
attr type int
vector 16 Topology.switch2.eth[1].phyLayer.transmitter transmitting:vector ETV
attr interpolationmode sample-hold
attr recordingmode vector
attr source "count(transmissionStarted) - count(transmissionEnded)"
attr title "transmitting state"
attr type int
vector 17 Topology.switch2.eth[2].phyLayer.interFrameGapInserter interpacketGap:vector ETV
attr interpolationmode sample-hold
attr recordingmode vector
attr source "count(interpacketGapStarted) - count(interpacketGapEnded)"
attr title "interpacket gap state"
attr type int
vector 18 Topology.switch2.eth[2].phyLayer.transmitter transmitting:vector ETV
attr interpolationmode sample-hold
attr recordingmode vector
attr source "count(transmissionStarted) - count(transmissionEnded)"
attr title "transmitting state"
attr type int
vector 19 Topology.switch2.eth[3].phyLayer.interFrameGapInserter interpacketGap:vector ETV
attr interpolationmode sample-hold
attr recordingmode vector
attr source "count(interpacketGapStarted) - count(interpacketGapEnded)"
attr title "interpacket gap state"
attr type int
vector 20 Topology.switch2.eth[3].phyLayer.transmitter transmitting:vector ETV
attr interpolationmode sample-hold
attr recordingmode vector
attr source "count(transmissionStarted) - count(transmissionEnded)"
attr title "transmitting state"
attr type int
vector 21 Topology.switch2.eth[4].phyLayer.interFrameGapInserter interpacketGap:vector ETV
attr interpolationmode sample-hold
attr recordingmode vector
attr source "count(interpacketGapStarted) - count(interpacketGapEnded)"
attr title "interpacket gap state"
attr type int
vector 22 Topology.switch2.eth[4].phyLayer.transmitter transmitting:vector ETV
attr interpolationmode sample-hold
attr recordingmode vector
attr source "count(transmissionStarted) - count(transmissionEnded)"
attr title "transmitting state"
attr type int
vector 23 Topology.switch3.eth[0].phyLayer.interFrameGapInserter interpacketGap:vector ETV
attr interpolationmode sample-hold
attr recordingmode vector
attr source "count(interpacketGapStarted) - count(interpacketGapEnded)"
attr title "interpacket gap state"
attr type int
vector 24 Topology.switch3.eth[0].phyLayer.transmitter transmitting:vector ETV
attr interpolationmode sample-hold
attr recordingmode vector
attr source "count(transmissionStarted) - count(transmissionEnded)"
attr title "transmitting state"
attr type int
vector 25 Topology.switch3.eth[1].phyLayer.interFrameGapInserter interpacketGap:vector ETV
attr interpolationmode sample-hold
attr recordingmode vector
attr source "count(interpacketGapStarted) - count(interpacketGapEnded)"
attr title "interpacket gap state"
attr type int
vector 26 Topology.switch3.eth[1].phyLayer.transmitter transmitting:vector ETV
attr interpolationmode sample-hold
attr recordingmode vector
attr source "count(transmissionStarted) - count(transmissionEnded)"
attr title "transmitting state"
attr type int
vector 27 Topology.switch3.eth[2].phyLayer.interFrameGapInserter interpacketGap:vector ETV
attr interpolationmode sample-hold
attr recordingmode vector
attr source "count(interpacketGapStarted) - count(interpacketGapEnded)"
attr title "interpacket gap state"
attr type int
vector 28 Topology.switch3.eth[2].phyLayer.transmitter transmitting:vector ETV
attr interpolationmode sample-hold
attr recordingmode vector
attr source "count(transmissionStarted) - count(transmissionEnded)"
attr title "transmitting state"
attr type int
vector 29 Topology.switch3.eth[3].phyLayer.interFrameGapInserter interpacketGap:vector ETV
attr interpolationmode sample-hold
attr recordingmode vector
attr source "count(interpacketGapStarted) - count(interpacketGapEnded)"
attr title "interpacket gap state"
attr type int
vector 30 Topology.switch3.eth[3].phyLayer.transmitter transmitting:vector ETV
attr interpolationmode sample-hold
attr recordingmode vector
attr source "count(transmissionStarted) - count(transmissionEnded)"
attr title "transmitting state"
attr type int
vector 31 Topology.switch3.eth[4].phyLayer.interFrameGapInserter interpacketGap:vector ETV
attr interpolationmode sample-hold
attr recordingmode vector
attr source "count(interpacketGapStarted) - count(interpacketGapEnded)"
attr title "interpacket gap state"
attr type int
vector 32 Topology.switch3.eth[4].phyLayer.transmitter transmitting:vector ETV
attr interpolationmode sample-hold
attr recordingmode vector
attr source "count(transmissionStarted) - count(transmissionEnded)"
attr title "transmitting state"
attr type int
vector 33 Topology.switch4.eth[0].phyLayer.interFrameGapInserter interpacketGap:vector ETV
attr interpolationmode sample-hold
attr recordingmode vector
attr source "count(interpacketGapStarted) - count(interpacketGapEnded)"
attr title "interpacket gap state"
attr type int
vector 34 Topology.switch4.eth[0].phyLayer.transmitter transmitting:vector ETV
attr interpolationmode sample-hold
attr recordingmode vector
attr source "count(transmissionStarted) - count(transmissionEnded)"
attr title "transmitting state"
attr type int
vector 35 Topology.switch4.eth[1].phyLayer.interFrameGapInserter interpacketGap:vector ETV
attr interpolationmode sample-hold
attr recordingmode vector
attr source "count(interpacketGapStarted) - count(interpacketGapEnded)"
attr title "interpacket gap state"
attr type int
vector 36 Topology.switch4.eth[1].phyLayer.transmitter transmitting:vector ETV
attr interpolationmode sample-hold
attr recordingmode vector
attr source "count(transmissionStarted) - count(transmissionEnded)"
attr title "transmitting state"
attr type int
vector 37 Topology.switch4.eth[2].phyLayer.interFrameGapInserter interpacketGap:vector ETV
attr interpolationmode sample-hold
attr recordingmode vector
attr source "count(interpacketGapStarted) - count(interpacketGapEnded)"
attr title "interpacket gap state"
attr type int
vector 38 Topology.switch4.eth[2].phyLayer.transmitter transmitting:vector ETV
attr interpolationmode sample-hold
attr recordingmode vector
attr source "count(transmissionStarted) - count(transmissionEnded)"
attr title "transmitting state"
attr type int
vector 39 Topology.switch4.eth[3].phyLayer.interFrameGapInserter interpacketGap:vector ETV
attr interpolationmode sample-hold
attr recordingmode vector
attr source "count(interpacketGapStarted) - count(interpacketGapEnded)"
attr title "interpacket gap state"
attr type int
vector 40 Topology.switch4.eth[3].phyLayer.transmitter transmitting:vector ETV
attr interpolationmode sample-hold
attr recordingmode vector
attr source "count(transmissionStarted) - count(transmissionEnded)"
attr title "transmitting state"
attr type int
vector 41 Topology.switch5.eth[0].phyLayer.interFrameGapInserter interpacketGap:vector ETV
attr interpolationmode sample-hold
attr recordingmode vector
attr source "count(interpacketGapStarted) - count(interpacketGapEnded)"
attr title "interpacket gap state"
attr type int
vector 42 Topology.switch5.eth[0].phyLayer.transmitter transmitting:vector ETV
attr interpolationmode sample-hold
attr recordingmode vector
attr source "count(transmissionStarted) - count(transmissionEnded)"
attr title "transmitting state"
attr type int
vector 43 Topology.switch5.eth[1].phyLayer.interFrameGapInserter interpacketGap:vector ETV
attr interpolationmode sample-hold
attr recordingmode vector
attr source "count(interpacketGapStarted) - count(interpacketGapEnded)"
attr title "interpacket gap state"
attr type int
vector 44 Topology.switch5.eth[1].phyLayer.transmitter transmitting:vector ETV
attr interpolationmode sample-hold
attr recordingmode vector
attr source "count(transmissionStarted) - count(transmissionEnded)"
attr title "transmitting state"
attr type int
vector 45 Topology.switch5.eth[2].phyLayer.interFrameGapInserter interpacketGap:vector ETV
attr interpolationmode sample-hold
attr recordingmode vector
attr source "count(interpacketGapStarted) - count(interpacketGapEnded)"
attr title "interpacket gap state"
attr type int
vector 46 Topology.switch5.eth[2].phyLayer.transmitter transmitting:vector ETV
attr interpolationmode sample-hold
attr recordingmode vector
attr source "count(transmissionStarted) - count(transmissionEnded)"
attr title "transmitting state"
attr type int
vector 47 Topology.switch6.eth[0].phyLayer.interFrameGapInserter interpacketGap:vector ETV
attr interpolationmode sample-hold
attr recordingmode vector
attr source "count(interpacketGapStarted) - count(interpacketGapEnded)"
attr title "interpacket gap state"
attr type int
vector 48 Topology.switch6.eth[0].phyLayer.transmitter transmitting:vector ETV
attr interpolationmode sample-hold
attr recordingmode vector
attr source "count(transmissionStarted) - count(transmissionEnded)"
attr title "transmitting state"
attr type int
vector 49 Topology.switch6.eth[1].phyLayer.interFrameGapInserter interpacketGap:vector ETV
attr interpolationmode sample-hold
attr recordingmode vector
attr source "count(interpacketGapStarted) - count(interpacketGapEnded)"
attr title "interpacket gap state"
attr type int
vector 50 Topology.switch6.eth[1].phyLayer.transmitter transmitting:vector ETV
attr interpolationmode sample-hold
attr recordingmode vector
attr source "count(transmissionStarted) - count(transmissionEnded)"
attr title "transmitting state"
attr type int
vector 51 Topology.switch6.eth[2].phyLayer.interFrameGapInserter interpacketGap:vector ETV
attr interpolationmode sample-hold
attr recordingmode vector
attr source "count(interpacketGapStarted) - count(interpacketGapEnded)"
attr title "interpacket gap state"
attr type int
vector 52 Topology.switch6.eth[2].phyLayer.transmitter transmitting:vector ETV
attr interpolationmode sample-hold
attr recordingmode vector
attr source "count(transmissionStarted) - count(transmissionEnded)"
attr title "transmitting state"
attr type int
vector 53 Topology.switch7.eth[0].phyLayer.interFrameGapInserter interpacketGap:vector ETV
attr interpolationmode sample-hold
attr recordingmode vector
attr source "count(interpacketGapStarted) - count(interpacketGapEnded)"
attr title "interpacket gap state"
attr type int
vector 54 Topology.switch7.eth[0].phyLayer.transmitter transmitting:vector ETV
attr interpolationmode sample-hold
attr recordingmode vector
attr source "count(transmissionStarted) - count(transmissionEnded)"
attr title "transmitting state"
attr type int
vector 55 Topology.switch7.eth[1].phyLayer.interFrameGapInserter interpacketGap:vector ETV
attr interpolationmode sample-hold
attr recordingmode vector
attr source "count(interpacketGapStarted) - count(interpacketGapEnded)"
attr title "interpacket gap state"
attr type int
vector 56 Topology.switch7.eth[1].phyLayer.transmitter transmitting:vector ETV
attr interpolationmode sample-hold
attr recordingmode vector
attr source "count(transmissionStarted) - count(transmissionEnded)"
attr title "transmitting state"
attr type int
vector 57 Topology.switch7.eth[2].phyLayer.interFrameGapInserter interpacketGap:vector ETV
attr interpolationmode sample-hold
attr recordingmode vector
attr source "count(interpacketGapStarted) - count(interpacketGapEnded)"
attr title "interpacket gap state"
attr type int
vector 58 Topology.switch7.eth[2].phyLayer.transmitter transmitting:vector ETV
attr interpolationmode sample-hold
attr recordingmode vector
attr source "count(transmissionStarted) - count(transmissionEnded)"
attr title "transmitting state"
attr type int
vector 59 Topology.HVACClient[0].eth[0].phyLayer.interFrameGapInserter interpacketGap:vector ETV
attr interpolationmode sample-hold
attr recordingmode vector
attr source "count(interpacketGapStarted) - count(interpacketGapEnded)"
attr title "interpacket gap state"
attr type int
vector 60 Topology.HVACClient[0].eth[0].phyLayer.transmitter transmitting:vector ETV
attr interpolationmode sample-hold
attr recordingmode vector
attr source "count(transmissionStarted) - count(transmissionEnded)"
attr title "transmitting state"
attr type int
vector 61 Topology.HVACClient[0].udp passedUpPk:vector(count) ETV
attr interpolationmode none
attr recordingmode vector(count)
attr source packetSentToUpper
attr title "packets passed up, count"
vector 62 Topology.HVACClient[0].udp droppedPkWrongPort:vector(count) ETV
attr interpolationmode none
attr recordingmode vector(count)
attr source packetDropReasonIsNoPortFound(packetDropped)
attr title "packets dropped (wrong port), count"
vector 63 Topology.HVACClient[0].udp droppedPkBadChecksum:vector(count) ETV
attr interpolationmode none
attr recordingmode vector(count)
attr source packetDropReasonIsIncorrectlyReceived(packetDropped)
attr title "packets dropped (checksum error), count"
vector 64 Topology.HVACClient[1].eth[0].phyLayer.interFrameGapInserter interpacketGap:vector ETV
attr interpolationmode sample-hold
attr recordingmode vector
attr source "count(interpacketGapStarted) - count(interpacketGapEnded)"
attr title "interpacket gap state"
attr type int
vector 65 Topology.HVACClient[1].eth[0].phyLayer.transmitter transmitting:vector ETV
attr interpolationmode sample-hold
attr recordingmode vector
attr source "count(transmissionStarted) - count(transmissionEnded)"
attr title "transmitting state"
attr type int
vector 66 Topology.HVACClient[1].udp passedUpPk:vector(count) ETV
attr interpolationmode none
attr recordingmode vector(count)
attr source packetSentToUpper
attr title "packets passed up, count"
vector 67 Topology.HVACClient[1].udp droppedPkWrongPort:vector(count) ETV
attr interpolationmode none
attr recordingmode vector(count)
attr source packetDropReasonIsNoPortFound(packetDropped)
attr title "packets dropped (wrong port), count"
vector 68 Topology.HVACClient[1].udp droppedPkBadChecksum:vector(count) ETV
attr interpolationmode none
attr recordingmode vector(count)
attr source packetDropReasonIsIncorrectlyReceived(packetDropped)
attr title "packets dropped (checksum error), count"
vector 69 Topology.HVACClient[2].eth[0].phyLayer.interFrameGapInserter interpacketGap:vector ETV
attr interpolationmode sample-hold
attr recordingmode vector
attr source "count(interpacketGapStarted) - count(interpacketGapEnded)"
attr title "interpacket gap state"
attr type int
vector 70 Topology.HVACClient[2].eth[0].phyLayer.transmitter transmitting:vector ETV
attr interpolationmode sample-hold
attr recordingmode vector
attr source "count(transmissionStarted) - count(transmissionEnded)"
attr title "transmitting state"
attr type int
vector 71 Topology.HVACClient[2].udp passedUpPk:vector(count) ETV
attr interpolationmode none
attr recordingmode vector(count)
attr source packetSentToUpper
attr title "packets passed up, count"
vector 72 Topology.HVACClient[2].udp droppedPkWrongPort:vector(count) ETV
attr interpolationmode none
attr recordingmode vector(count)
attr source packetDropReasonIsNoPortFound(packetDropped)
attr title "packets dropped (wrong port), count"
vector 73 Topology.HVACClient[2].udp droppedPkBadChecksum:vector(count) ETV
attr interpolationmode none
attr recordingmode vector(count)
attr source packetDropReasonIsIncorrectlyReceived(packetDropped)
attr title "packets dropped (checksum error), count"
vector 74 Topology.HVACClient[3].eth[0].phyLayer.interFrameGapInserter interpacketGap:vector ETV
attr interpolationmode sample-hold
attr recordingmode vector
attr source "count(interpacketGapStarted) - count(interpacketGapEnded)"
attr title "interpacket gap state"
attr type int
vector 75 Topology.HVACClient[3].eth[0].phyLayer.transmitter transmitting:vector ETV
attr interpolationmode sample-hold
attr recordingmode vector
attr source "count(transmissionStarted) - count(transmissionEnded)"
attr title "transmitting state"
attr type int
vector 76 Topology.HVACClient[3].udp passedUpPk:vector(count) ETV
attr interpolationmode none
attr recordingmode vector(count)
attr source packetSentToUpper
attr title "packets passed up, count"
vector 77 Topology.HVACClient[3].udp droppedPkWrongPort:vector(count) ETV
attr interpolationmode none
attr recordingmode vector(count)
attr source packetDropReasonIsNoPortFound(packetDropped)
attr title "packets dropped (wrong port), count"
vector 78 Topology.HVACClient[3].udp droppedPkBadChecksum:vector(count) ETV
attr interpolationmode none
attr recordingmode vector(count)
attr source packetDropReasonIsIncorrectlyReceived(packetDropped)
attr title "packets dropped (checksum error), count"
vector 79 Topology.HVACClient[4].eth[0].phyLayer.interFrameGapInserter interpacketGap:vector ETV
attr interpolationmode sample-hold
attr recordingmode vector
attr source "count(interpacketGapStarted) - count(interpacketGapEnded)"
attr title "interpacket gap state"
attr type int
vector 80 Topology.HVACClient[4].eth[0].phyLayer.transmitter transmitting:vector ETV
attr interpolationmode sample-hold
attr recordingmode vector
attr source "count(transmissionStarted) - count(transmissionEnded)"
attr title "transmitting state"
attr type int
vector 81 Topology.HVACClient[4].udp passedUpPk:vector(count) ETV
attr interpolationmode none
attr recordingmode vector(count)
attr source packetSentToUpper
attr title "packets passed up, count"
vector 82 Topology.HVACClient[4].udp droppedPkWrongPort:vector(count) ETV
attr interpolationmode none
attr recordingmode vector(count)
attr source packetDropReasonIsNoPortFound(packetDropped)
attr title "packets dropped (wrong port), count"
vector 83 Topology.HVACClient[4].udp droppedPkBadChecksum:vector(count) ETV
attr interpolationmode none
attr recordingmode vector(count)
attr source packetDropReasonIsIncorrectlyReceived(packetDropped)
attr title "packets dropped (checksum error), count"
vector 84 Topology.HVACClient[5].eth[0].phyLayer.interFrameGapInserter interpacketGap:vector ETV
attr interpolationmode sample-hold
attr recordingmode vector
attr source "count(interpacketGapStarted) - count(interpacketGapEnded)"
attr title "interpacket gap state"
attr type int
vector 85 Topology.HVACClient[5].eth[0].phyLayer.transmitter transmitting:vector ETV
attr interpolationmode sample-hold
attr recordingmode vector
attr source "count(transmissionStarted) - count(transmissionEnded)"
attr title "transmitting state"
attr type int
vector 86 Topology.HVACClient[5].udp passedUpPk:vector(count) ETV
attr interpolationmode none
attr recordingmode vector(count)
attr source packetSentToUpper
attr title "packets passed up, count"
vector 87 Topology.HVACClient[5].udp droppedPkWrongPort:vector(count) ETV
attr interpolationmode none
attr recordingmode vector(count)
attr source packetDropReasonIsNoPortFound(packetDropped)
attr title "packets dropped (wrong port), count"
vector 88 Topology.HVACClient[5].udp droppedPkBadChecksum:vector(count) ETV
attr interpolationmode none
attr recordingmode vector(count)
attr source packetDropReasonIsIncorrectlyReceived(packetDropped)
attr title "packets dropped (checksum error), count"
vector 89 Topology.HVACClient[6].eth[0].phyLayer.interFrameGapInserter interpacketGap:vector ETV
attr interpolationmode sample-hold
attr recordingmode vector
attr source "count(interpacketGapStarted) - count(interpacketGapEnded)"
attr title "interpacket gap state"
attr type int
vector 90 Topology.HVACClient[6].eth[0].phyLayer.transmitter transmitting:vector ETV
attr interpolationmode sample-hold
attr recordingmode vector
attr source "count(transmissionStarted) - count(transmissionEnded)"
attr title "transmitting state"
attr type int
vector 91 Topology.HVACClient[6].udp passedUpPk:vector(count) ETV
attr interpolationmode none
attr recordingmode vector(count)
attr source packetSentToUpper
attr title "packets passed up, count"
vector 92 Topology.HVACClient[6].udp droppedPkWrongPort:vector(count) ETV
attr interpolationmode none
attr recordingmode vector(count)
attr source packetDropReasonIsNoPortFound(packetDropped)
attr title "packets dropped (wrong port), count"
vector 93 Topology.HVACClient[6].udp droppedPkBadChecksum:vector(count) ETV
attr interpolationmode none
attr recordingmode vector(count)
attr source packetDropReasonIsIncorrectlyReceived(packetDropped)
attr title "packets dropped (checksum error), count"
vector 94 Topology.HVACClient[7].eth[0].phyLayer.interFrameGapInserter interpacketGap:vector ETV
attr interpolationmode sample-hold
attr recordingmode vector
attr source "count(interpacketGapStarted) - count(interpacketGapEnded)"
attr title "interpacket gap state"
attr type int
vector 95 Topology.HVACClient[7].eth[0].phyLayer.transmitter transmitting:vector ETV
attr interpolationmode sample-hold
attr recordingmode vector
attr source "count(transmissionStarted) - count(transmissionEnded)"
attr title "transmitting state"
attr type int
vector 96 Topology.HVACClient[7].udp passedUpPk:vector(count) ETV
attr interpolationmode none
attr recordingmode vector(count)
attr source packetSentToUpper
attr title "packets passed up, count"
vector 97 Topology.HVACClient[7].udp droppedPkWrongPort:vector(count) ETV
attr interpolationmode none
attr recordingmode vector(count)
attr source packetDropReasonIsNoPortFound(packetDropped)
attr title "packets dropped (wrong port), count"
vector 98 Topology.HVACClient[7].udp droppedPkBadChecksum:vector(count) ETV
attr interpolationmode none
attr recordingmode vector(count)
attr source packetDropReasonIsIncorrectlyReceived(packetDropped)
attr title "packets dropped (checksum error), count"
vector 99 Topology.switch1.eth[0].macLayer.queue.transmissionGate[0] gateState:vector ETV
attr enum CLOSED,OPEN
attr interpolationmode sample-hold
attr moduledisplaypath Topology.switch1.eth[0].macLayer.queue.besteffort
attr recordingmode vector
attr source gateStateChanged
attr title "gate state"
attr type enum
vector 100 Topology.switch1.eth[0].macLayer.queue.transmissionGate[0] guardBandState:vector ETV
attr enum ON,OFF
attr interpolationmode sample-hold
attr moduledisplaypath Topology.switch1.eth[0].macLayer.queue.besteffort
attr recordingmode vector
attr source guardBandStateChanged
attr title "guard band state"
attr type enum
vector 101 Topology.switch1.eth[0].macLayer.queue.transmissionGate[1] gateState:vector ETV
attr enum CLOSED,OPEN
attr interpolationmode sample-hold
attr moduledisplaypath Topology.switch1.eth[0].macLayer.queue.video
attr recordingmode vector
attr source gateStateChanged
attr title "gate state"
attr type enum
vector 102 Topology.switch1.eth[0].macLayer.queue.transmissionGate[1] guardBandState:vector ETV
attr enum ON,OFF
attr interpolationmode sample-hold
attr moduledisplaypath Topology.switch1.eth[0].macLayer.queue.video
attr recordingmode vector
attr source guardBandStateChanged
attr title "guard band state"
attr type enum
vector 103 Topology.switch1.eth[1].macLayer.queue.transmissionGate[0] gateState:vector ETV
attr enum CLOSED,OPEN
attr interpolationmode sample-hold
attr moduledisplaypath Topology.switch1.eth[1].macLayer.queue.besteffort
attr recordingmode vector
attr source gateStateChanged
attr title "gate state"
attr type enum
vector 104 Topology.switch1.eth[1].macLayer.queue.transmissionGate[0] guardBandState:vector ETV
attr enum ON,OFF
attr interpolationmode sample-hold
attr moduledisplaypath Topology.switch1.eth[1].macLayer.queue.besteffort
attr recordingmode vector
attr source guardBandStateChanged
attr title "guard band state"
attr type enum
vector 105 Topology.switch1.eth[1].macLayer.queue.transmissionGate[1] gateState:vector ETV
attr enum CLOSED,OPEN
attr interpolationmode sample-hold
attr moduledisplaypath Topology.switch1.eth[1].macLayer.queue.video
attr recordingmode vector
attr source gateStateChanged
attr title "gate state"
attr type enum
vector 106 Topology.switch1.eth[1].macLayer.queue.transmissionGate[1] guardBandState:vector ETV
attr enum ON,OFF
attr interpolationmode sample-hold
attr moduledisplaypath Topology.switch1.eth[1].macLayer.queue.video
attr recordingmode vector
attr source guardBandStateChanged
attr title "guard band state"
attr type enum
vector 107 Topology.switch1.eth[2].macLayer.queue.transmissionGate[0] gateState:vector ETV
attr enum CLOSED,OPEN
attr interpolationmode sample-hold
attr moduledisplaypath Topology.switch1.eth[2].macLayer.queue.besteffort
attr recordingmode vector
attr source gateStateChanged
attr title "gate state"
attr type enum
vector 108 Topology.switch1.eth[2].macLayer.queue.transmissionGate[0] guardBandState:vector ETV
attr enum ON,OFF
attr interpolationmode sample-hold
attr moduledisplaypath Topology.switch1.eth[2].macLayer.queue.besteffort
attr recordingmode vector
attr source guardBandStateChanged
attr title "guard band state"
attr type enum
vector 109 Topology.switch1.eth[2].macLayer.queue.transmissionGate[1] gateState:vector ETV
attr enum CLOSED,OPEN
attr interpolationmode sample-hold
attr moduledisplaypath Topology.switch1.eth[2].macLayer.queue.video
attr recordingmode vector
attr source gateStateChanged
attr title "gate state"
attr type enum
vector 110 Topology.switch1.eth[2].macLayer.queue.transmissionGate[1] guardBandState:vector ETV
attr enum ON,OFF
attr interpolationmode sample-hold
attr moduledisplaypath Topology.switch1.eth[2].macLayer.queue.video
attr recordingmode vector
attr source guardBandStateChanged
attr title "guard band state"
attr type enum
vector 111 Topology.switch1.eth[3].macLayer.queue.transmissionGate[0] gateState:vector ETV
attr enum CLOSED,OPEN
attr interpolationmode sample-hold
attr moduledisplaypath Topology.switch1.eth[3].macLayer.queue.besteffort
attr recordingmode vector
attr source gateStateChanged
attr title "gate state"
attr type enum
vector 112 Topology.switch1.eth[3].macLayer.queue.transmissionGate[0] guardBandState:vector ETV
attr enum ON,OFF
attr interpolationmode sample-hold
attr moduledisplaypath Topology.switch1.eth[3].macLayer.queue.besteffort
attr recordingmode vector
attr source guardBandStateChanged
attr title "guard band state"
attr type enum
vector 113 Topology.switch1.eth[3].macLayer.queue.transmissionGate[1] gateState:vector ETV
attr enum CLOSED,OPEN
attr interpolationmode sample-hold
attr moduledisplaypath Topology.switch1.eth[3].macLayer.queue.video
attr recordingmode vector
attr source gateStateChanged
attr title "gate state"
attr type enum
vector 114 Topology.switch1.eth[3].macLayer.queue.transmissionGate[1] guardBandState:vector ETV
attr enum ON,OFF
attr interpolationmode sample-hold
attr moduledisplaypath Topology.switch1.eth[3].macLayer.queue.video
attr recordingmode vector
attr source guardBandStateChanged
attr title "guard band state"
attr type enum
vector 115 Topology.switch2.eth[0].macLayer.queue.transmissionGate[0] gateState:vector ETV
attr enum CLOSED,OPEN
attr interpolationmode sample-hold
attr moduledisplaypath Topology.switch2.eth[0].macLayer.queue.besteffort
attr recordingmode vector
attr source gateStateChanged
attr title "gate state"
attr type enum
vector 116 Topology.switch2.eth[0].macLayer.queue.transmissionGate[0] guardBandState:vector ETV
attr enum ON,OFF
attr interpolationmode sample-hold
attr moduledisplaypath Topology.switch2.eth[0].macLayer.queue.besteffort
attr recordingmode vector
attr source guardBandStateChanged
attr title "guard band state"
attr type enum
vector 117 Topology.switch2.eth[0].macLayer.queue.transmissionGate[1] gateState:vector ETV
attr enum CLOSED,OPEN
attr interpolationmode sample-hold
attr moduledisplaypath Topology.switch2.eth[0].macLayer.queue.video
attr recordingmode vector
attr source gateStateChanged
attr title "gate state"
attr type enum
vector 118 Topology.switch2.eth[0].macLayer.queue.transmissionGate[1] guardBandState:vector ETV
attr enum ON,OFF
attr interpolationmode sample-hold
attr moduledisplaypath Topology.switch2.eth[0].macLayer.queue.video
attr recordingmode vector
attr source guardBandStateChanged
attr title "guard band state"
attr type enum
vector 119 Topology.switch2.eth[1].macLayer.queue.transmissionGate[0] gateState:vector ETV
attr enum CLOSED,OPEN
attr interpolationmode sample-hold
attr moduledisplaypath Topology.switch2.eth[1].macLayer.queue.besteffort
attr recordingmode vector
attr source gateStateChanged
attr title "gate state"
attr type enum
vector 120 Topology.switch2.eth[1].macLayer.queue.transmissionGate[0] guardBandState:vector ETV
attr enum ON,OFF
attr interpolationmode sample-hold
attr moduledisplaypath Topology.switch2.eth[1].macLayer.queue.besteffort
attr recordingmode vector
attr source guardBandStateChanged
attr title "guard band state"
attr type enum
vector 121 Topology.switch2.eth[1].macLayer.queue.transmissionGate[1] gateState:vector ETV
attr enum CLOSED,OPEN
attr interpolationmode sample-hold
attr moduledisplaypath Topology.switch2.eth[1].macLayer.queue.video
attr recordingmode vector
attr source gateStateChanged
attr title "gate state"
attr type enum
vector 122 Topology.switch2.eth[1].macLayer.queue.transmissionGate[1] guardBandState:vector ETV
attr enum ON,OFF
attr interpolationmode sample-hold
attr moduledisplaypath Topology.switch2.eth[1].macLayer.queue.video
attr recordingmode vector
attr source guardBandStateChanged
attr title "guard band state"
attr type enum
vector 123 Topology.switch2.eth[2].macLayer.queue.transmissionGate[0] gateState:vector ETV
attr enum CLOSED,OPEN
attr interpolationmode sample-hold
attr moduledisplaypath Topology.switch2.eth[2].macLayer.queue.besteffort
attr recordingmode vector
attr source gateStateChanged
attr title "gate state"
attr type enum
vector 124 Topology.switch2.eth[2].macLayer.queue.transmissionGate[0] guardBandState:vector ETV
attr enum ON,OFF
attr interpolationmode sample-hold
attr moduledisplaypath Topology.switch2.eth[2].macLayer.queue.besteffort
attr recordingmode vector
attr source guardBandStateChanged
attr title "guard band state"
attr type enum
vector 125 Topology.switch2.eth[2].macLayer.queue.transmissionGate[1] gateState:vector ETV
attr enum CLOSED,OPEN
attr interpolationmode sample-hold
attr moduledisplaypath Topology.switch2.eth[2].macLayer.queue.video
attr recordingmode vector
attr source gateStateChanged
attr title "gate state"
attr type enum
vector 126 Topology.switch2.eth[2].macLayer.queue.transmissionGate[1] guardBandState:vector ETV
attr enum ON,OFF
attr interpolationmode sample-hold
attr moduledisplaypath Topology.switch2.eth[2].macLayer.queue.video
attr recordingmode vector
attr source guardBandStateChanged
attr title "guard band state"
attr type enum
vector 127 Topology.switch2.eth[3].macLayer.queue.transmissionGate[0] gateState:vector ETV
attr enum CLOSED,OPEN
attr interpolationmode sample-hold
attr moduledisplaypath Topology.switch2.eth[3].macLayer.queue.besteffort
attr recordingmode vector
attr source gateStateChanged
attr title "gate state"
attr type enum
vector 128 Topology.switch2.eth[3].macLayer.queue.transmissionGate[0] guardBandState:vector ETV
attr enum ON,OFF
attr interpolationmode sample-hold
attr moduledisplaypath Topology.switch2.eth[3].macLayer.queue.besteffort
attr recordingmode vector
attr source guardBandStateChanged
attr title "guard band state"
attr type enum
vector 129 Topology.switch2.eth[3].macLayer.queue.transmissionGate[1] gateState:vector ETV
attr enum CLOSED,OPEN
attr interpolationmode sample-hold
attr moduledisplaypath Topology.switch2.eth[3].macLayer.queue.video
attr recordingmode vector
attr source gateStateChanged
attr title "gate state"
attr type enum
vector 130 Topology.switch2.eth[3].macLayer.queue.transmissionGate[1] guardBandState:vector ETV
attr enum ON,OFF
attr interpolationmode sample-hold
attr moduledisplaypath Topology.switch2.eth[3].macLayer.queue.video
attr recordingmode vector
attr source guardBandStateChanged
attr title "guard band state"
attr type enum
vector 131 Topology.switch2.eth[4].macLayer.queue.transmissionGate[0] gateState:vector ETV
attr enum CLOSED,OPEN
attr interpolationmode sample-hold
attr moduledisplaypath Topology.switch2.eth[4].macLayer.queue.besteffort
attr recordingmode vector
attr source gateStateChanged
attr title "gate state"
attr type enum
vector 132 Topology.switch2.eth[4].macLayer.queue.transmissionGate[0] guardBandState:vector ETV
attr enum ON,OFF
attr interpolationmode sample-hold
attr moduledisplaypath Topology.switch2.eth[4].macLayer.queue.besteffort
attr recordingmode vector
attr source guardBandStateChanged
attr title "guard band state"
attr type enum
vector 133 Topology.switch2.eth[4].macLayer.queue.transmissionGate[1] gateState:vector ETV
attr enum CLOSED,OPEN
attr interpolationmode sample-hold
attr moduledisplaypath Topology.switch2.eth[4].macLayer.queue.video
attr recordingmode vector
attr source gateStateChanged
attr title "gate state"
attr type enum
vector 134 Topology.switch2.eth[4].macLayer.queue.transmissionGate[1] guardBandState:vector ETV
attr enum ON,OFF
attr interpolationmode sample-hold
attr moduledisplaypath Topology.switch2.eth[4].macLayer.queue.video
attr recordingmode vector
attr source guardBandStateChanged
attr title "guard band state"
attr type enum
vector 135 Topology.switch3.eth[0].macLayer.queue.transmissionGate[0] gateState:vector ETV
attr enum CLOSED,OPEN
attr interpolationmode sample-hold
attr moduledisplaypath Topology.switch3.eth[0].macLayer.queue.besteffort
attr recordingmode vector
attr source gateStateChanged
attr title "gate state"
attr type enum
vector 136 Topology.switch3.eth[0].macLayer.queue.transmissionGate[0] guardBandState:vector ETV
attr enum ON,OFF
attr interpolationmode sample-hold
attr moduledisplaypath Topology.switch3.eth[0].macLayer.queue.besteffort
attr recordingmode vector
attr source guardBandStateChanged
attr title "guard band state"
attr type enum
vector 137 Topology.switch3.eth[0].macLayer.queue.transmissionGate[1] gateState:vector ETV
attr enum CLOSED,OPEN
attr interpolationmode sample-hold
attr moduledisplaypath Topology.switch3.eth[0].macLayer.queue.video
attr recordingmode vector
attr source gateStateChanged
attr title "gate state"
attr type enum
vector 138 Topology.switch3.eth[0].macLayer.queue.transmissionGate[1] guardBandState:vector ETV
attr enum ON,OFF
attr interpolationmode sample-hold
attr moduledisplaypath Topology.switch3.eth[0].macLayer.queue.video
attr recordingmode vector
attr source guardBandStateChanged
attr title "guard band state"
attr type enum
vector 139 Topology.switch3.eth[1].macLayer.queue.transmissionGate[0] gateState:vector ETV
attr enum CLOSED,OPEN
attr interpolationmode sample-hold
attr moduledisplaypath Topology.switch3.eth[1].macLayer.queue.besteffort
attr recordingmode vector
attr source gateStateChanged
attr title "gate state"
attr type enum
vector 140 Topology.switch3.eth[1].macLayer.queue.transmissionGate[0] guardBandState:vector ETV
attr enum ON,OFF
attr interpolationmode sample-hold
attr moduledisplaypath Topology.switch3.eth[1].macLayer.queue.besteffort
attr recordingmode vector
attr source guardBandStateChanged
attr title "guard band state"
attr type enum
vector 141 Topology.switch3.eth[1].macLayer.queue.transmissionGate[1] gateState:vector ETV
attr enum CLOSED,OPEN
attr interpolationmode sample-hold
attr moduledisplaypath Topology.switch3.eth[1].macLayer.queue.video
attr recordingmode vector
attr source gateStateChanged
attr title "gate state"
attr type enum
vector 142 Topology.switch3.eth[1].macLayer.queue.transmissionGate[1] guardBandState:vector ETV
attr enum ON,OFF
attr interpolationmode sample-hold
attr moduledisplaypath Topology.switch3.eth[1].macLayer.queue.video
attr recordingmode vector
attr source guardBandStateChanged
attr title "guard band state"
attr type enum
vector 143 Topology.switch3.eth[2].macLayer.queue.transmissionGate[0] gateState:vector ETV
attr enum CLOSED,OPEN
attr interpolationmode sample-hold
attr moduledisplaypath Topology.switch3.eth[2].macLayer.queue.besteffort
attr recordingmode vector
attr source gateStateChanged
attr title "gate state"
attr type enum
vector 144 Topology.switch3.eth[2].macLayer.queue.transmissionGate[0] guardBandState:vector ETV
attr enum ON,OFF
attr interpolationmode sample-hold
attr moduledisplaypath Topology.switch3.eth[2].macLayer.queue.besteffort
attr recordingmode vector
attr source guardBandStateChanged
attr title "guard band state"
attr type enum
vector 145 Topology.switch3.eth[2].macLayer.queue.transmissionGate[1] gateState:vector ETV
attr enum CLOSED,OPEN
attr interpolationmode sample-hold
attr moduledisplaypath Topology.switch3.eth[2].macLayer.queue.video
attr recordingmode vector
attr source gateStateChanged
attr title "gate state"
attr type enum
vector 146 Topology.switch3.eth[2].macLayer.queue.transmissionGate[1] guardBandState:vector ETV
attr enum ON,OFF
attr interpolationmode sample-hold
attr moduledisplaypath Topology.switch3.eth[2].macLayer.queue.video
attr recordingmode vector
attr source guardBandStateChanged
attr title "guard band state"
attr type enum
vector 147 Topology.switch3.eth[3].macLayer.queue.transmissionGate[0] gateState:vector ETV
attr enum CLOSED,OPEN
attr interpolationmode sample-hold
attr moduledisplaypath Topology.switch3.eth[3].macLayer.queue.besteffort
attr recordingmode vector
attr source gateStateChanged
attr title "gate state"
attr type enum
vector 148 Topology.switch3.eth[3].macLayer.queue.transmissionGate[0] guardBandState:vector ETV
attr enum ON,OFF
attr interpolationmode sample-hold
attr moduledisplaypath Topology.switch3.eth[3].macLayer.queue.besteffort
attr recordingmode vector
attr source guardBandStateChanged
attr title "guard band state"
attr type enum
vector 149 Topology.switch3.eth[3].macLayer.queue.transmissionGate[1] gateState:vector ETV
attr enum CLOSED,OPEN
attr interpolationmode sample-hold
attr moduledisplaypath Topology.switch3.eth[3].macLayer.queue.video
attr recordingmode vector
attr source gateStateChanged
attr title "gate state"
attr type enum
vector 150 Topology.switch3.eth[3].macLayer.queue.transmissionGate[1] guardBandState:vector ETV
attr enum ON,OFF
attr interpolationmode sample-hold
attr moduledisplaypath Topology.switch3.eth[3].macLayer.queue.video
attr recordingmode vector
attr source guardBandStateChanged
attr title "guard band state"
attr type enum
vector 151 Topology.switch3.eth[4].macLayer.queue.transmissionGate[0] gateState:vector ETV
attr enum CLOSED,OPEN
attr interpolationmode sample-hold
attr moduledisplaypath Topology.switch3.eth[4].macLayer.queue.besteffort
attr recordingmode vector
attr source gateStateChanged
attr title "gate state"
attr type enum
vector 152 Topology.switch3.eth[4].macLayer.queue.transmissionGate[0] guardBandState:vector ETV
attr enum ON,OFF
attr interpolationmode sample-hold
attr moduledisplaypath Topology.switch3.eth[4].macLayer.queue.besteffort
attr recordingmode vector
attr source guardBandStateChanged
attr title "guard band state"
attr type enum
vector 153 Topology.switch3.eth[4].macLayer.queue.transmissionGate[1] gateState:vector ETV
attr enum CLOSED,OPEN
attr interpolationmode sample-hold
attr moduledisplaypath Topology.switch3.eth[4].macLayer.queue.video
attr recordingmode vector
attr source gateStateChanged
attr title "gate state"
attr type enum
vector 154 Topology.switch3.eth[4].macLayer.queue.transmissionGate[1] guardBandState:vector ETV
attr enum ON,OFF
attr interpolationmode sample-hold
attr moduledisplaypath Topology.switch3.eth[4].macLayer.queue.video
attr recordingmode vector
attr source guardBandStateChanged
attr title "guard band state"
attr type enum
vector 155 Topology.switch4.eth[0].macLayer.queue.transmissionGate[0] gateState:vector ETV
attr enum CLOSED,OPEN
attr interpolationmode sample-hold
attr moduledisplaypath Topology.switch4.eth[0].macLayer.queue.besteffort
attr recordingmode vector
attr source gateStateChanged
attr title "gate state"
attr type enum
vector 156 Topology.switch4.eth[0].macLayer.queue.transmissionGate[0] guardBandState:vector ETV
attr enum ON,OFF
attr interpolationmode sample-hold
attr moduledisplaypath Topology.switch4.eth[0].macLayer.queue.besteffort
attr recordingmode vector
attr source guardBandStateChanged
attr title "guard band state"
attr type enum
vector 157 Topology.switch4.eth[0].macLayer.queue.transmissionGate[1] gateState:vector ETV
attr enum CLOSED,OPEN
attr interpolationmode sample-hold
attr moduledisplaypath Topology.switch4.eth[0].macLayer.queue.video
attr recordingmode vector
attr source gateStateChanged
attr title "gate state"
attr type enum
vector 158 Topology.switch4.eth[0].macLayer.queue.transmissionGate[1] guardBandState:vector ETV
attr enum ON,OFF
attr interpolationmode sample-hold
attr moduledisplaypath Topology.switch4.eth[0].macLayer.queue.video
attr recordingmode vector
attr source guardBandStateChanged
attr title "guard band state"
attr type enum
vector 159 Topology.switch4.eth[1].macLayer.queue.transmissionGate[0] gateState:vector ETV
attr enum CLOSED,OPEN
attr interpolationmode sample-hold
attr moduledisplaypath Topology.switch4.eth[1].macLayer.queue.besteffort
attr recordingmode vector
attr source gateStateChanged
attr title "gate state"
attr type enum
vector 160 Topology.switch4.eth[1].macLayer.queue.transmissionGate[0] guardBandState:vector ETV
attr enum ON,OFF
attr interpolationmode sample-hold
attr moduledisplaypath Topology.switch4.eth[1].macLayer.queue.besteffort
attr recordingmode vector
attr source guardBandStateChanged
attr title "guard band state"
attr type enum
vector 161 Topology.switch4.eth[1].macLayer.queue.transmissionGate[1] gateState:vector ETV
attr enum CLOSED,OPEN
attr interpolationmode sample-hold
attr moduledisplaypath Topology.switch4.eth[1].macLayer.queue.video
attr recordingmode vector
attr source gateStateChanged
attr title "gate state"
attr type enum
vector 162 Topology.switch4.eth[1].macLayer.queue.transmissionGate[1] guardBandState:vector ETV
attr enum ON,OFF
attr interpolationmode sample-hold
attr moduledisplaypath Topology.switch4.eth[1].macLayer.queue.video
attr recordingmode vector
attr source guardBandStateChanged
attr title "guard band state"
attr type enum
vector 163 Topology.switch4.eth[2].macLayer.queue.transmissionGate[0] gateState:vector ETV
attr enum CLOSED,OPEN
attr interpolationmode sample-hold
attr moduledisplaypath Topology.switch4.eth[2].macLayer.queue.besteffort
attr recordingmode vector
attr source gateStateChanged
attr title "gate state"
attr type enum
vector 164 Topology.switch4.eth[2].macLayer.queue.transmissionGate[0] guardBandState:vector ETV
attr enum ON,OFF
attr interpolationmode sample-hold
attr moduledisplaypath Topology.switch4.eth[2].macLayer.queue.besteffort
attr recordingmode vector
attr source guardBandStateChanged
attr title "guard band state"
attr type enum
vector 165 Topology.switch4.eth[2].macLayer.queue.transmissionGate[1] gateState:vector ETV
attr enum CLOSED,OPEN
attr interpolationmode sample-hold
attr moduledisplaypath Topology.switch4.eth[2].macLayer.queue.video
attr recordingmode vector
attr source gateStateChanged
attr title "gate state"
attr type enum
vector 166 Topology.switch4.eth[2].macLayer.queue.transmissionGate[1] guardBandState:vector ETV
attr enum ON,OFF
attr interpolationmode sample-hold
attr moduledisplaypath Topology.switch4.eth[2].macLayer.queue.video
attr recordingmode vector
attr source guardBandStateChanged
attr title "guard band state"
attr type enum
vector 167 Topology.switch4.eth[3].macLayer.queue.transmissionGate[0] gateState:vector ETV
attr enum CLOSED,OPEN
attr interpolationmode sample-hold
attr moduledisplaypath Topology.switch4.eth[3].macLayer.queue.besteffort
attr recordingmode vector
attr source gateStateChanged
attr title "gate state"
attr type enum
vector 168 Topology.switch4.eth[3].macLayer.queue.transmissionGate[0] guardBandState:vector ETV
attr enum ON,OFF
attr interpolationmode sample-hold
attr moduledisplaypath Topology.switch4.eth[3].macLayer.queue.besteffort
attr recordingmode vector
attr source guardBandStateChanged
attr title "guard band state"
attr type enum
vector 169 Topology.switch4.eth[3].macLayer.queue.transmissionGate[1] gateState:vector ETV
attr enum CLOSED,OPEN
attr interpolationmode sample-hold
attr moduledisplaypath Topology.switch4.eth[3].macLayer.queue.video
attr recordingmode vector
attr source gateStateChanged
attr title "gate state"
attr type enum
vector 170 Topology.switch4.eth[3].macLayer.queue.transmissionGate[1] guardBandState:vector ETV
attr enum ON,OFF
attr interpolationmode sample-hold
attr moduledisplaypath Topology.switch4.eth[3].macLayer.queue.video
attr recordingmode vector
attr source guardBandStateChanged
attr title "guard band state"
attr type enum
vector 171 Topology.switch5.eth[0].macLayer.queue.transmissionGate[0] gateState:vector ETV
attr enum CLOSED,OPEN
attr interpolationmode sample-hold
attr moduledisplaypath Topology.switch5.eth[0].macLayer.queue.besteffort
attr recordingmode vector
attr source gateStateChanged
attr title "gate state"
attr type enum
vector 172 Topology.switch5.eth[0].macLayer.queue.transmissionGate[0] guardBandState:vector ETV
attr enum ON,OFF
attr interpolationmode sample-hold
attr moduledisplaypath Topology.switch5.eth[0].macLayer.queue.besteffort
attr recordingmode vector
attr source guardBandStateChanged
attr title "guard band state"
attr type enum
vector 173 Topology.switch5.eth[0].macLayer.queue.transmissionGate[1] gateState:vector ETV
attr enum CLOSED,OPEN
attr interpolationmode sample-hold
attr moduledisplaypath Topology.switch5.eth[0].macLayer.queue.video
attr recordingmode vector
attr source gateStateChanged
attr title "gate state"
attr type enum
vector 174 Topology.switch5.eth[0].macLayer.queue.transmissionGate[1] guardBandState:vector ETV
attr enum ON,OFF
attr interpolationmode sample-hold
attr moduledisplaypath Topology.switch5.eth[0].macLayer.queue.video
attr recordingmode vector
attr source guardBandStateChanged
attr title "guard band state"
attr type enum
vector 175 Topology.switch5.eth[1].macLayer.queue.transmissionGate[0] gateState:vector ETV
attr enum CLOSED,OPEN
attr interpolationmode sample-hold
attr moduledisplaypath Topology.switch5.eth[1].macLayer.queue.besteffort
attr recordingmode vector
attr source gateStateChanged
attr title "gate state"
attr type enum
vector 176 Topology.switch5.eth[1].macLayer.queue.transmissionGate[0] guardBandState:vector ETV
attr enum ON,OFF
attr interpolationmode sample-hold
attr moduledisplaypath Topology.switch5.eth[1].macLayer.queue.besteffort
attr recordingmode vector
attr source guardBandStateChanged
attr title "guard band state"
attr type enum
vector 177 Topology.switch5.eth[1].macLayer.queue.transmissionGate[1] gateState:vector ETV
attr enum CLOSED,OPEN
attr interpolationmode sample-hold
attr moduledisplaypath Topology.switch5.eth[1].macLayer.queue.video
attr recordingmode vector
attr source gateStateChanged
attr title "gate state"
attr type enum
vector 178 Topology.switch5.eth[1].macLayer.queue.transmissionGate[1] guardBandState:vector ETV
attr enum ON,OFF
attr interpolationmode sample-hold
attr moduledisplaypath Topology.switch5.eth[1].macLayer.queue.video
attr recordingmode vector
attr source guardBandStateChanged
attr title "guard band state"
attr type enum
vector 179 Topology.switch5.eth[2].macLayer.queue.transmissionGate[0] gateState:vector ETV
attr enum CLOSED,OPEN
attr interpolationmode sample-hold
attr moduledisplaypath Topology.switch5.eth[2].macLayer.queue.besteffort
attr recordingmode vector
attr source gateStateChanged
attr title "gate state"
attr type enum
vector 180 Topology.switch5.eth[2].macLayer.queue.transmissionGate[0] guardBandState:vector ETV
attr enum ON,OFF
attr interpolationmode sample-hold
attr moduledisplaypath Topology.switch5.eth[2].macLayer.queue.besteffort
attr recordingmode vector
attr source guardBandStateChanged
attr title "guard band state"
attr type enum
vector 181 Topology.switch5.eth[2].macLayer.queue.transmissionGate[1] gateState:vector ETV
attr enum CLOSED,OPEN
attr interpolationmode sample-hold
attr moduledisplaypath Topology.switch5.eth[2].macLayer.queue.video
attr recordingmode vector
attr source gateStateChanged
attr title "gate state"
attr type enum
vector 182 Topology.switch5.eth[2].macLayer.queue.transmissionGate[1] guardBandState:vector ETV
attr enum ON,OFF
attr interpolationmode sample-hold
attr moduledisplaypath Topology.switch5.eth[2].macLayer.queue.video
attr recordingmode vector
attr source guardBandStateChanged
attr title "guard band state"
attr type enum
vector 183 Topology.switch6.eth[0].macLayer.queue.transmissionGate[0] gateState:vector ETV
attr enum CLOSED,OPEN
attr interpolationmode sample-hold
attr moduledisplaypath Topology.switch6.eth[0].macLayer.queue.besteffort
attr recordingmode vector
attr source gateStateChanged
attr title "gate state"
attr type enum
vector 184 Topology.switch6.eth[0].macLayer.queue.transmissionGate[0] guardBandState:vector ETV
attr enum ON,OFF
attr interpolationmode sample-hold
attr moduledisplaypath Topology.switch6.eth[0].macLayer.queue.besteffort
attr recordingmode vector
attr source guardBandStateChanged
attr title "guard band state"
attr type enum
vector 185 Topology.switch6.eth[0].macLayer.queue.transmissionGate[1] gateState:vector ETV
attr enum CLOSED,OPEN
attr interpolationmode sample-hold
attr moduledisplaypath Topology.switch6.eth[0].macLayer.queue.video
attr recordingmode vector
attr source gateStateChanged
attr title "gate state"
attr type enum
vector 186 Topology.switch6.eth[0].macLayer.queue.transmissionGate[1] guardBandState:vector ETV
attr enum ON,OFF
attr interpolationmode sample-hold
attr moduledisplaypath Topology.switch6.eth[0].macLayer.queue.video
attr recordingmode vector
attr source guardBandStateChanged
attr title "guard band state"
attr type enum
vector 187 Topology.switch6.eth[1].macLayer.queue.transmissionGate[0] gateState:vector ETV
attr enum CLOSED,OPEN
attr interpolationmode sample-hold
attr moduledisplaypath Topology.switch6.eth[1].macLayer.queue.besteffort
attr recordingmode vector
attr source gateStateChanged
attr title "gate state"
attr type enum
vector 188 Topology.switch6.eth[1].macLayer.queue.transmissionGate[0] guardBandState:vector ETV
attr enum ON,OFF
attr interpolationmode sample-hold
attr moduledisplaypath Topology.switch6.eth[1].macLayer.queue.besteffort
attr recordingmode vector
attr source guardBandStateChanged
attr title "guard band state"
attr type enum
vector 189 Topology.switch6.eth[1].macLayer.queue.transmissionGate[1] gateState:vector ETV
attr enum CLOSED,OPEN
attr interpolationmode sample-hold
attr moduledisplaypath Topology.switch6.eth[1].macLayer.queue.video
attr recordingmode vector
attr source gateStateChanged
attr title "gate state"
attr type enum
vector 190 Topology.switch6.eth[1].macLayer.queue.transmissionGate[1] guardBandState:vector ETV
attr enum ON,OFF
attr interpolationmode sample-hold
attr moduledisplaypath Topology.switch6.eth[1].macLayer.queue.video
attr recordingmode vector
attr source guardBandStateChanged
attr title "guard band state"
attr type enum
vector 191 Topology.switch6.eth[2].macLayer.queue.transmissionGate[0] gateState:vector ETV
attr enum CLOSED,OPEN
attr interpolationmode sample-hold
attr moduledisplaypath Topology.switch6.eth[2].macLayer.queue.besteffort
attr recordingmode vector
attr source gateStateChanged
attr title "gate state"
attr type enum
vector 192 Topology.switch6.eth[2].macLayer.queue.transmissionGate[0] guardBandState:vector ETV
attr enum ON,OFF
attr interpolationmode sample-hold
attr moduledisplaypath Topology.switch6.eth[2].macLayer.queue.besteffort
attr recordingmode vector
attr source guardBandStateChanged
attr title "guard band state"
attr type enum
vector 193 Topology.switch6.eth[2].macLayer.queue.transmissionGate[1] gateState:vector ETV
attr enum CLOSED,OPEN
attr interpolationmode sample-hold
attr moduledisplaypath Topology.switch6.eth[2].macLayer.queue.video
attr recordingmode vector
attr source gateStateChanged
attr title "gate state"
attr type enum
vector 194 Topology.switch6.eth[2].macLayer.queue.transmissionGate[1] guardBandState:vector ETV
attr enum ON,OFF
attr interpolationmode sample-hold
attr moduledisplaypath Topology.switch6.eth[2].macLayer.queue.video
attr recordingmode vector
attr source guardBandStateChanged
attr title "guard band state"
attr type enum
vector 195 Topology.switch7.eth[0].macLayer.queue.transmissionGate[0] gateState:vector ETV
attr enum CLOSED,OPEN
attr interpolationmode sample-hold
attr moduledisplaypath Topology.switch7.eth[0].macLayer.queue.besteffort
attr recordingmode vector
attr source gateStateChanged
attr title "gate state"
attr type enum
vector 196 Topology.switch7.eth[0].macLayer.queue.transmissionGate[0] guardBandState:vector ETV
attr enum ON,OFF
attr interpolationmode sample-hold
attr moduledisplaypath Topology.switch7.eth[0].macLayer.queue.besteffort
attr recordingmode vector
attr source guardBandStateChanged
attr title "guard band state"
attr type enum
vector 197 Topology.switch7.eth[0].macLayer.queue.transmissionGate[1] gateState:vector ETV
attr enum CLOSED,OPEN
attr interpolationmode sample-hold
attr moduledisplaypath Topology.switch7.eth[0].macLayer.queue.video
attr recordingmode vector
attr source gateStateChanged
attr title "gate state"
attr type enum
vector 198 Topology.switch7.eth[0].macLayer.queue.transmissionGate[1] guardBandState:vector ETV
attr enum ON,OFF
attr interpolationmode sample-hold
attr moduledisplaypath Topology.switch7.eth[0].macLayer.queue.video
attr recordingmode vector
attr source guardBandStateChanged
attr title "guard band state"
attr type enum
vector 199 Topology.switch7.eth[1].macLayer.queue.transmissionGate[0] gateState:vector ETV
attr enum CLOSED,OPEN
attr interpolationmode sample-hold
attr moduledisplaypath Topology.switch7.eth[1].macLayer.queue.besteffort
attr recordingmode vector
attr source gateStateChanged
attr title "gate state"
attr type enum
vector 200 Topology.switch7.eth[1].macLayer.queue.transmissionGate[0] guardBandState:vector ETV
attr enum ON,OFF
attr interpolationmode sample-hold
attr moduledisplaypath Topology.switch7.eth[1].macLayer.queue.besteffort
attr recordingmode vector
attr source guardBandStateChanged
attr title "guard band state"
attr type enum
vector 201 Topology.switch7.eth[1].macLayer.queue.transmissionGate[1] gateState:vector ETV
attr enum CLOSED,OPEN
attr interpolationmode sample-hold
attr moduledisplaypath Topology.switch7.eth[1].macLayer.queue.video
attr recordingmode vector
attr source gateStateChanged
attr title "gate state"
attr type enum
vector 202 Topology.switch7.eth[1].macLayer.queue.transmissionGate[1] guardBandState:vector ETV
attr enum ON,OFF
attr interpolationmode sample-hold
attr moduledisplaypath Topology.switch7.eth[1].macLayer.queue.video
attr recordingmode vector
attr source guardBandStateChanged
attr title "guard band state"
attr type enum
vector 203 Topology.switch7.eth[2].macLayer.queue.transmissionGate[0] gateState:vector ETV
attr enum CLOSED,OPEN
attr interpolationmode sample-hold
attr moduledisplaypath Topology.switch7.eth[2].macLayer.queue.besteffort
attr recordingmode vector
attr source gateStateChanged
attr title "gate state"
attr type enum
vector 204 Topology.switch7.eth[2].macLayer.queue.transmissionGate[0] guardBandState:vector ETV
attr enum ON,OFF
attr interpolationmode sample-hold
attr moduledisplaypath Topology.switch7.eth[2].macLayer.queue.besteffort
attr recordingmode vector
attr source guardBandStateChanged
attr title "guard band state"
attr type enum
vector 205 Topology.switch7.eth[2].macLayer.queue.transmissionGate[1] gateState:vector ETV
attr enum CLOSED,OPEN
attr interpolationmode sample-hold
attr moduledisplaypath Topology.switch7.eth[2].macLayer.queue.video
attr recordingmode vector
attr source gateStateChanged
attr title "gate state"
attr type enum
vector 206 Topology.switch7.eth[2].macLayer.queue.transmissionGate[1] guardBandState:vector ETV
attr enum ON,OFF
attr interpolationmode sample-hold
attr moduledisplaypath Topology.switch7.eth[2].macLayer.queue.video
attr recordingmode vector
attr source guardBandStateChanged
attr title "guard band state"
attr type enum
vector 207 Topology.HVACClient[0].app[0].source packetLengths:vector ETV
attr interpolationmode none
attr moduledisplaypath Topology.HVACClient[0].besteffort.source
attr recordingmode vector
attr source packetLength(packetPushed)
attr title "packet lengths"
attr unit b
vector 208 Topology.HVACClient[1].app[0].source packetLengths:vector ETV
attr interpolationmode none
attr moduledisplaypath Topology.HVACClient[1].besteffort.source
attr recordingmode vector
attr source packetLength(packetPushed)
attr title "packet lengths"
attr unit b
vector 209 Topology.HVACClient[2].app[0].source packetLengths:vector ETV
attr interpolationmode none
attr moduledisplaypath Topology.HVACClient[2].besteffort.source
attr recordingmode vector
attr source packetLength(packetPushed)
attr title "packet lengths"
attr unit b
vector 210 Topology.HVACClient[3].app[0].source packetLengths:vector ETV
attr interpolationmode none
attr moduledisplaypath Topology.HVACClient[3].besteffort.source
attr recordingmode vector
attr source packetLength(packetPushed)
attr title "packet lengths"
attr unit b
vector 211 Topology.HVACClient[4].app[0].source packetLengths:vector ETV
attr interpolationmode none
attr moduledisplaypath Topology.HVACClient[4].besteffort.source
attr recordingmode vector
attr source packetLength(packetPushed)
attr title "packet lengths"
attr unit b
vector 212 Topology.HVACClient[5].app[0].source packetLengths:vector ETV
attr interpolationmode none
attr moduledisplaypath Topology.HVACClient[5].besteffort.source
attr recordingmode vector
attr source packetLength(packetPushed)
attr title "packet lengths"
attr unit b
vector 213 Topology.HVACClient[6].app[0].source packetLengths:vector ETV
attr interpolationmode none
attr moduledisplaypath Topology.HVACClient[6].besteffort.source
attr recordingmode vector
attr source packetLength(packetPushed)
attr title "packet lengths"
attr unit b
vector 214 Topology.HVACClient[7].app[0].source packetLengths:vector ETV
attr interpolationmode none
attr moduledisplaypath Topology.HVACClient[7].besteffort.source
attr recordingmode vector
attr source packetLength(packetPushed)
attr title "packet lengths"
attr unit b
vector 215 Topology.HVACClient[0].app[0].io packetSent:vector(packetBytes) ETV
attr interpolationmode none
attr moduledisplaypath Topology.HVACClient[0].besteffort.io
attr recordingmode vector(packetBytes)
attr source packetSent
attr title "packets sent, packetBytes"
vector 216 Topology.HVACClient[1].app[0].io packetSent:vector(packetBytes) ETV
attr interpolationmode none
attr moduledisplaypath Topology.HVACClient[1].besteffort.io
attr recordingmode vector(packetBytes)
attr source packetSent
attr title "packets sent, packetBytes"
vector 217 Topology.HVACClient[2].app[0].io packetSent:vector(packetBytes) ETV
attr interpolationmode none
attr moduledisplaypath Topology.HVACClient[2].besteffort.io
attr recordingmode vector(packetBytes)
attr source packetSent
attr title "packets sent, packetBytes"
vector 218 Topology.HVACClient[3].app[0].io packetSent:vector(packetBytes) ETV
attr interpolationmode none
attr moduledisplaypath Topology.HVACClient[3].besteffort.io
attr recordingmode vector(packetBytes)
attr source packetSent
attr title "packets sent, packetBytes"
vector 219 Topology.HVACClient[4].app[0].io packetSent:vector(packetBytes) ETV
attr interpolationmode none
attr moduledisplaypath Topology.HVACClient[4].besteffort.io
attr recordingmode vector(packetBytes)
attr source packetSent
attr title "packets sent, packetBytes"
vector 220 Topology.HVACClient[5].app[0].io packetSent:vector(packetBytes) ETV
attr interpolationmode none
attr moduledisplaypath Topology.HVACClient[5].besteffort.io
attr recordingmode vector(packetBytes)
attr source packetSent
attr title "packets sent, packetBytes"
vector 221 Topology.HVACClient[6].app[0].io packetSent:vector(packetBytes) ETV
attr interpolationmode none
attr moduledisplaypath Topology.HVACClient[6].besteffort.io
attr recordingmode vector(packetBytes)
attr source packetSent
attr title "packets sent, packetBytes"
vector 222 Topology.HVACClient[7].app[0].io packetSent:vector(packetBytes) ETV
attr interpolationmode none
attr moduledisplaypath Topology.HVACClient[7].besteffort.io
attr recordingmode vector(packetBytes)
attr source packetSent
attr title "packets sent, packetBytes"
vector 223 Topology.HVACClient[0].udp packetSent:vector(packetBytes) ETV
attr interpolationmode none
attr recordingmode vector(packetBytes)
attr source packetSent
attr title "packets sent, packetBytes"
vector 224 Topology.HVACClient[1].udp packetSent:vector(packetBytes) ETV
attr interpolationmode none
attr recordingmode vector(packetBytes)
attr source packetSent
attr title "packets sent, packetBytes"
vector 225 Topology.HVACClient[2].udp packetSent:vector(packetBytes) ETV
attr interpolationmode none
attr recordingmode vector(packetBytes)
attr source packetSent
attr title "packets sent, packetBytes"
vector 226 Topology.HVACClient[3].udp packetSent:vector(packetBytes) ETV
attr interpolationmode none
attr recordingmode vector(packetBytes)
attr source packetSent
attr title "packets sent, packetBytes"
vector 227 Topology.HVACClient[4].udp packetSent:vector(packetBytes) ETV
attr interpolationmode none
attr recordingmode vector(packetBytes)
attr source packetSent
attr title "packets sent, packetBytes"
vector 228 Topology.HVACClient[5].udp packetSent:vector(packetBytes) ETV
attr interpolationmode none
attr recordingmode vector(packetBytes)
attr source packetSent
attr title "packets sent, packetBytes"
vector 229 Topology.HVACClient[6].udp packetSent:vector(packetBytes) ETV
attr interpolationmode none
attr recordingmode vector(packetBytes)
attr source packetSent
attr title "packets sent, packetBytes"
vector 230 Topology.HVACClient[7].udp packetSent:vector(packetBytes) ETV
attr interpolationmode none
attr recordingmode vector(packetBytes)
attr source packetSent
attr title "packets sent, packetBytes"
vector 231 Topology.HVACClient[0].bridging.streamIdentifier.identifier incomingPacketLengths:vector ETV
attr interpolationmode none
attr recordingmode vector
attr source "packetLength(merge(packetPushedIn, packetPulledIn))"
attr title "incoming packet lengths"
attr unit b
vector 232 Topology.HVACClient[0].bridging.streamIdentifier.identifier outgoingPacketLengths:vector ETV
attr interpolationmode none
attr recordingmode vector
attr source "packetLength(merge(packetPushedOut, packetPulledOut))"
attr title "outgoing packet lengths"
attr unit b
vector 233 Topology.HVACClient[0].bridging.streamCoder.encoder incomingPacketLengths:vector ETV
attr interpolationmode none
attr recordingmode vector
attr source "packetLength(merge(packetPushedIn, packetPulledIn))"
attr title "incoming packet lengths"
attr unit b
vector 234 Topology.HVACClient[0].bridging.streamCoder.encoder outgoingPacketLengths:vector ETV
attr interpolationmode none
attr recordingmode vector
attr source "packetLength(merge(packetPushedOut, packetPulledOut))"
attr title "outgoing packet lengths"
attr unit b
vector 235 Topology.HVACClient[0].ieee8021q.qTagHeaderInserter incomingPacketLengths:vector ETV
attr interpolationmode none
attr recordingmode vector
attr source "packetLength(merge(packetPushedIn, packetPulledIn))"
attr title "incoming packet lengths"
attr unit b
vector 236 Topology.HVACClient[0].ieee8021q.qTagHeaderInserter outgoingPacketLengths:vector ETV
attr interpolationmode none
attr recordingmode vector
attr source "packetLength(merge(packetPushedOut, packetPulledOut))"
attr title "outgoing packet lengths"
attr unit b
vector 237 Topology.HVACClient[0].ethernet.macHeaderInserter incomingPacketLengths:vector ETV
attr interpolationmode none
attr recordingmode vector
attr source "packetLength(merge(packetPushedIn, packetPulledIn))"
attr title "incoming packet lengths"
attr unit b
vector 238 Topology.HVACClient[0].ethernet.macHeaderInserter outgoingPacketLengths:vector ETV
attr interpolationmode none
attr recordingmode vector
attr source "packetLength(merge(packetPushedOut, packetPulledOut))"
attr title "outgoing packet lengths"
attr unit b
vector 239 Topology.HVACClient[0].ethernet.paddingInserter incomingPacketLengths:vector ETV
attr interpolationmode none
attr recordingmode vector
attr source "packetLength(merge(packetPushedIn, packetPulledIn))"
attr title "incoming packet lengths"
attr unit b
vector 240 Topology.HVACClient[0].ethernet.paddingInserter outgoingPacketLengths:vector ETV
attr interpolationmode none
attr recordingmode vector
attr source "packetLength(merge(packetPushedOut, packetPulledOut))"
attr title "outgoing packet lengths"
attr unit b
vector 241 Topology.HVACClient[0].ethernet.fcsInserter incomingPacketLengths:vector ETV
attr interpolationmode none
attr recordingmode vector
attr source "packetLength(merge(packetPushedIn, packetPulledIn))"
attr title "incoming packet lengths"
attr unit b
vector 242 Topology.HVACClient[0].ethernet.fcsInserter outgoingPacketLengths:vector ETV
attr interpolationmode none
attr recordingmode vector
attr source "packetLength(merge(packetPushedOut, packetPulledOut))"
attr title "outgoing packet lengths"
attr unit b
vector 243 Topology.HVACClient[0].eth[0].macLayer.queue incomingPacketLengths:vector ETV
attr interpolationmode none
attr recordingmode vector
attr source packetLength(packetPushStarted)
attr title "incoming packet lengths"
attr unit b
vector 244 Topology.HVACClient[0].eth[0].macLayer.queue queueLength:vector ETV
attr autoWarmupFilter false
attr interpolationmode sample-hold
attr recordingmode vector
attr source "warmup(atomic(constant0(packetPushEnded) + count(packetPushStarted) - count(packetPulled) - count(packetRemoved) - count(packetDropped)))"
attr title "queue length"
attr unit pk
vector 245 Topology.HVACClient[0].eth[0].macLayer.queue queueBitLength:vector ETV
attr autoWarmupFilter false
attr interpolationmode sample-hold
attr recordingmode vector
attr source "warmup(atomic(constant0(packetPushEnded) + sum(packetLength(packetPushStarted)) - sum(packetLength(packetPulled)) - sum(packetLength(packetRemoved)) - sum(packetLength(packetDropped))))"
attr title "queue bit length"
attr unit b
vector 246 Topology.HVACClient[1].bridging.streamIdentifier.identifier incomingPacketLengths:vector ETV
attr interpolationmode none
attr recordingmode vector
attr source "packetLength(merge(packetPushedIn, packetPulledIn))"
attr title "incoming packet lengths"
attr unit b
vector 247 Topology.HVACClient[1].bridging.streamIdentifier.identifier outgoingPacketLengths:vector ETV
attr interpolationmode none
attr recordingmode vector
attr source "packetLength(merge(packetPushedOut, packetPulledOut))"
attr title "outgoing packet lengths"
attr unit b
vector 248 Topology.HVACClient[1].bridging.streamCoder.encoder incomingPacketLengths:vector ETV
attr interpolationmode none
attr recordingmode vector
attr source "packetLength(merge(packetPushedIn, packetPulledIn))"
attr title "incoming packet lengths"
[...]
793	221	0.00001194	528
793	244	0.00001882	528
794	221	0.00001194	528
794	244	0.00001882	528
795	221	0.00001194	528
795	244	0.00001882	528
796	221	0.00001194	528
796	244	0.00001882	528
797	222	0.00001194	0
797	247	0.00001882	6.88e-06
797	272	0.0000257	6.88e-06
797	288	0.00003258	1.376e-05
798	222	0.00001194	528
798	247	0.00001882	528
798	272	0.0000257	528
798	288	0.00003258	528
799	222	0.00001194	528
799	247	0.00001882	528
799	272	0.0000257	528
799	288	0.00003258	528
800	222	0.00001194	528
800	247	0.00001882	528
800	272	0.0000257	528
800	288	0.00003258	528
801	222	0.00001194	528
801	247	0.00001882	528
801	272	0.0000257	528
801	288	0.00003258	528
802	222	0.00001194	0
802	247	0.00001882	0
802	272	0.0000257	0
802	288	0.00003258	0
803	222	0.00001194	528
803	247	0.00001882	528
803	272	0.0000257	528
803	288	0.00003258	528
804	222	0.00001194	528
804	247	0.00001882	528
804	272	0.0000257	528
804	288	0.00003258	528
805	222	0.00001194	528
805	247	0.00001882	528
805	272	0.0000257	528
805	288	0.00003258	528
806	222	0.00001194	528
806	247	0.00001882	528
806	272	0.0000257	528
806	288	0.00003258	528
807	222	0.00001194	528
807	247	0.00001882	528
807	272	0.0000257	528
807	288	0.00003258	528
808	222	0.00001194	528
808	247	0.00001882	528
808	272	0.0000257	528
808	288	0.00003258	528
809	222	0.00001194	592
809	247	0.00001882	592
809	272	0.0000257	592
809	288	0.00003258	592
810	222	0.00001194	592
810	247	0.00001882	592
810	272	0.0000257	592
810	288	0.00003258	592
811	222	0.00001194	592
811	247	0.00001882	592
811	272	0.0000257	592
811	288	0.00003258	592
812	223	0.00001194	0
812	248	0.00001882	6.88e-06
812	273	0.0000257	6.88e-06
812	289	0.00003258	1.376e-05
813	223	0.00001194	528
813	248	0.00001882	528
813	273	0.0000257	528
813	289	0.00003258	528
814	223	0.00001194	528
814	248	0.00001882	528
814	273	0.0000257	528
814	289	0.00003258	528
815	223	0.00001194	528
815	248	0.00001882	528
815	273	0.0000257	528
815	289	0.00003258	528
816	223	0.00001194	528
816	248	0.00001882	528
816	273	0.0000257	528
816	289	0.00003258	528
817	223	0.00001194	0
817	248	0.00001882	0
817	273	0.0000257	0
817	289	0.00003258	0
818	223	0.00001194	528
818	248	0.00001882	528
818	273	0.0000257	528
818	289	0.00003258	528
819	223	0.00001194	528
819	248	0.00001882	528
819	273	0.0000257	528
819	289	0.00003258	528
820	223	0.00001194	528
820	248	0.00001882	528
820	273	0.0000257	528
820	289	0.00003258	528
821	223	0.00001194	528
821	248	0.00001882	528
821	273	0.0000257	528
821	289	0.00003258	528
822	223	0.00001194	528
822	248	0.00001882	528
822	273	0.0000257	528
822	289	0.00003258	528
823	223	0.00001194	528
823	248	0.00001882	528
823	273	0.0000257	528
823	289	0.00003258	528
824	223	0.00001194	592
824	248	0.00001882	592
824	273	0.0000257	592
824	289	0.00003258	592
825	223	0.00001194	592
825	248	0.00001882	592
825	273	0.0000257	592
825	289	0.00003258	592
826	223	0.00001194	592
826	248	0.00001882	592
826	273	0.0000257	592
826	289	0.00003258	592
827	232	0.00001786	5.92e-06
827	264	0.00002474	5.92e-06
827	280	0.00003162	5.92e-06
827	296	0.0000385	5.92e-06
828	233	0.00001786	5.92e-06
828	265	0.00002474	5.92e-06
828	281	0.00003162	5.92e-06
828	297	0.0000385	5.92e-06
829	234	0.00001791	5.92e-06
829	266	0.00002479	5.92e-06
829	282	0.00003167	5.92e-06
829	298	0.00003855	5.92e-06
830	234	0.00001791	592
830	266	0.00002479	592
830	282	0.00003167	592
830	298	0.00003855	592
831	234	0.00001791	592
831	266	0.00002479	592
831	282	0.00003167	592
831	298	0.00003855	592
832	234	0.00001791	592
832	266	0.00002479	592
832	282	0.00003167	592
832	298	0.00003855	592
833	234	0.00001791	528
833	266	0.00002479	528
833	282	0.00003167	528
833	298	0.00003855	528
834	234	0.00001791	528
834	266	0.00002479	528
834	282	0.00003167	528
834	298	0.00003855	528
835	234	0.00001791	528
835	266	0.00002479	528
835	282	0.00003167	528
835	298	0.00003855	528
836	234	0.00001791	528
836	266	0.00002479	528
836	282	0.00003167	528
836	298	0.00003855	528
837	234	0.00001791	528
837	266	0.00002479	528
837	282	0.00003167	528
837	298	0.00003855	528
838	234	0.00001791	528
838	235	0.00001791	528
838	266	0.00002479	528
838	267	0.00002479	528
838	282	0.00003167	528
838	283	0.00003167	528
838	298	0.00003855	528
838	299	0.00003855	528
839	234	0.00001791	496
839	235	0.00001791	496
839	266	0.00002479	496
839	267	0.00002479	496
839	282	0.00003167	496
839	283	0.00003167	496
839	298	0.00003855	496
839	299	0.00003855	496
840	234	0.00001791	496
840	235	0.00001791	496
840	266	0.00002479	496
840	267	0.00002479	496
840	282	0.00003167	496
840	283	0.00003167	496
840	298	0.00003855	496
840	299	0.00003855	496
841	234	0.00001791	384
841	235	0.00001791	384
841	266	0.00002479	384
841	267	0.00002479	384
841	282	0.00003167	384
841	283	0.00003167	384
841	298	0.00003855	384
841	299	0.00003855	384
842	234	0.00001791	384
842	235	0.00001791	384
842	266	0.00002479	384
842	267	0.00002479	384
842	282	0.00003167	384
842	283	0.00003167	384
842	298	0.00003855	384
842	299	0.00003855	384
843	234	0.00001791	352
843	235	0.00001791	352
843	266	0.00002479	352
843	267	0.00002479	352
843	282	0.00003167	352
843	283	0.00003167	352
843	298	0.00003855	352
843	299	0.00003855	352
844	234	0.00001791	352
844	235	0.00001791	352
844	266	0.00002479	352
844	267	0.00002479	352
844	282	0.00003167	352
844	283	0.00003167	352
844	298	0.00003855	352
844	299	0.00003855	352
845	234	0.00001791	352
845	235	0.00001791	352
845	266	0.00002479	352
845	267	0.00002479	352
845	282	0.00003167	352
845	283	0.00003167	352
845	298	0.00003855	352
845	299	0.00003855	352
846	234	0.00001791	352
846	235	0.00001791	352
846	266	0.00002479	352
846	267	0.00002479	352
846	282	0.00003167	352
846	283	0.00003167	352
846	298	0.00003855	352
846	299	0.00003855	352
847	234	0.00001791	352
847	235	0.00001791	352
847	266	0.00002479	352
847	267	0.00002479	352
847	282	0.00003167	352
847	283	0.00003167	352
847	298	0.00003855	352
847	299	0.00003855	352
848	234	0.00001791	352
848	235	0.00001791	352
848	266	0.00002479	352
848	267	0.00002479	352
848	282	0.00003167	352
848	283	0.00003167	352
848	298	0.00003855	352
848	299	0.00003855	352
849	234	0.00001791	352
849	235	0.00001791	352
849	266	0.00002479	352
849	267	0.00002479	352
849	282	0.00003167	352
849	283	0.00003167	352
849	298	0.00003855	352
849	299	0.00003855	352
850	234	0.00001791	352
850	235	0.00001791	352
850	266	0.00002479	352
850	267	0.00002479	352
850	282	0.00003167	352
850	283	0.00003167	352
850	298	0.00003855	352
850	299	0.00003855	352
851	234	0.00001791	352
851	235	0.00001791	352
851	266	0.00002479	352
851	267	0.00002479	352
851	282	0.00003167	352
851	283	0.00003167	352
851	298	0.00003855	352
851	299	0.00003855	352
852	234	0.00001791	352
852	235	0.00001791	352
852	266	0.00002479	352
852	267	0.00002479	352
852	282	0.00003167	352
852	283	0.00003167	352
852	298	0.00003855	352
852	299	0.00003855	352
853	234	0.00001791	352
853	235	0.00001791	352
853	266	0.00002479	352
853	267	0.00002479	352
853	282	0.00003167	352
853	283	0.00003167	352
853	298	0.00003855	352
853	299	0.00003855	352
854	234	0.00001791	352
854	235	0.00001791	352
854	266	0.00002479	352
854	267	0.00002479	352
854	282	0.00003167	352
854	283	0.00003167	352
854	298	0.00003855	352
854	299	0.00003855	352
855	234	0.00001791	384
855	235	0.00001791	384
855	266	0.00002479	384
855	267	0.00002479	384
855	282	0.00003167	384
855	283	0.00003167	384
855	298	0.00003855	384
855	299	0.00003855	384
856	234	0.00001791	384
856	235	0.00001791	384
856	266	0.00002479	384
856	267	0.00002479	384
856	282	0.00003167	384
856	283	0.00003167	384
856	298	0.00003855	384
856	299	0.00003855	384
857	234	0.00001791	496
857	235	0.00001791	496
857	266	0.00002479	496
857	267	0.00002479	496
857	282	0.00003167	496
857	283	0.00003167	496
857	298	0.00003855	496
857	299	0.00003855	496
858	234	0.00001791	496
858	235	0.00001791	496
858	266	0.00002479	496
858	267	0.00002479	496
858	282	0.00003167	496
858	283	0.00003167	496
858	298	0.00003855	496
858	299	0.00003855	496
859	234	0.00001791	496
859	235	0.00001791	496
859	266	0.00002479	496
859	267	0.00002479	496
859	282	0.00003167	496
859	283	0.00003167	496
859	298	0.00003855	496
859	299	0.00003855	496
860	234	0.00001791	496
860	235	0.00001791	496
860	266	0.00002479	496
860	267	0.00002479	496
860	282	0.00003167	496
860	283	0.00003167	496
860	298	0.00003855	496
860	299	0.00003855	496
861	234	0.00001791	528
861	235	0.00001791	528
861	266	0.00002479	528
861	267	0.00002479	528
861	282	0.00003167	528
861	283	0.00003167	528
861	298	0.00003855	528
861	299	0.00003855	528
862	234	0.00001791	528
862	235	0.00001791	528
862	266	0.00002479	528
862	267	0.00002479	528
862	282	0.00003167	528
862	283	0.00003167	528
862	298	0.00003855	528
862	299	0.00003855	528
863	234	0.00001791	528
863	235	0.00001791	528
863	266	0.00002479	528
863	267	0.00002479	528
863	282	0.00003167	528
863	283	0.00003167	528
863	298	0.00003855	528
863	299	0.00003855	528
864	234	0.00001791	528
864	235	0.00001791	528
864	266	0.00002479	528
864	267	0.00002479	528
864	282	0.00003167	528
864	283	0.00003167	528
864	298	0.00003855	528
864	299	0.00003855	528
865	234	0.00001791	1
865	235	0.00001791	2
865	236	0.00001791	1
865	266	0.00002479	2
865	267	0.00002479	3
865	269	0.00002479	2
865	282	0.00003167	3
865	283	0.00003167	4
865	285	0.00003167	3
865	298	0.00003855	4
865	299	0.00003855	5
865	301	0.00003855	4
865	313	0.00004543	3
865	321	0.00005231	2
865	329	0.00005919	1
865	339	0.00006607	0
866	234	0.00001791	528
866	235	0.00001791	1056
866	236	0.00001791	528
866	266	0.00002479	1056
866	267	0.00002479	1584
866	269	0.00002479	1056
866	282	0.00003167	1584
866	283	0.00003167	2112
866	285	0.00003167	1584
866	298	0.00003855	2112
866	299	0.00003855	2640
866	301	0.00003855	2112
866	313	0.00004543	1584
866	321	0.00005231	1056
866	329	0.00005919	528
866	339	0.00006607	0
867	234	0.00001791	1
867	235	0.00001791	2
867	236	0.00001791	1
867	266	0.00002479	2
867	267	0.00002479	3
867	269	0.00002479	2
867	282	0.00003167	3
867	283	0.00003167	4
867	285	0.00003167	3
867	298	0.00003855	4
867	299	0.00003855	5
867	301	0.00003855	4
867	313	0.00004543	3
867	321	0.00005231	2
867	329	0.00005919	1
867	339	0.00006607	0
868	234	0.00001791	528
868	235	0.00001791	1056
868	236	0.00001791	528
868	266	0.00002479	1056
868	267	0.00002479	1584
868	269	0.00002479	1056
868	282	0.00003167	1584
868	283	0.00003167	2112
868	285	0.00003167	1584
868	298	0.00003855	2112
868	299	0.00003855	2640
868	301	0.00003855	2112
868	313	0.00004543	1584
868	321	0.00005231	1056
868	329	0.00005919	528
868	339	0.00006607	0
869	235	0.00001791	5.92e-06
869	267	0.00002479	5.92e-06
869	283	0.00003167	5.92e-06
869	299	0.00003855	5.92e-06
870	235	0.00001791	592
870	267	0.00002479	592
870	283	0.00003167	592
870	299	0.00003855	592
871	235	0.00001791	592
871	267	0.00002479	592
871	283	0.00003167	592
871	299	0.00003855	592
872	235	0.00001791	592
872	267	0.00002479	592
872	283	0.00003167	592
872	299	0.00003855	592
873	235	0.00001791	528
873	267	0.00002479	528
873	283	0.00003167	528
873	299	0.00003855	528
874	235	0.00001791	528
874	267	0.00002479	528
874	283	0.00003167	528
874	299	0.00003855	528
875	235	0.00001791	528
875	267	0.00002479	528
875	283	0.00003167	528
875	299	0.00003855	528
876	235	0.00001791	528
876	267	0.00002479	528
876	283	0.00003167	528
876	299	0.00003855	528
877	235	0.00001791	528
877	267	0.00002479	528
877	283	0.00003167	528
877	299	0.00003855	528
878	236	0.00001791	0
878	269	0.00002479	6.88e-06
878	285	0.00003167	6.88e-06
878	301	0.00003855	1.376e-05
878	313	0.00004543	1.376e-05
878	321	0.00005231	2.064e-05
878	329	0.00005919	2.064e-05
878	339	0.00006607	2.752e-05
879	236	0.00001791	528
879	269	0.00002479	528
879	285	0.00003167	528
879	301	0.00003855	528
879	313	0.00004543	528
879	321	0.00005231	528
879	329	0.00005919	528
879	339	0.00006607	528
880	236	0.00001791	528
880	269	0.00002479	528
880	285	0.00003167	528
880	301	0.00003855	528
880	313	0.00004543	528
880	321	0.00005231	528
880	329	0.00005919	528
880	339	0.00006607	528
881	236	0.00001791	528
881	269	0.00002479	528
881	285	0.00003167	528
881	301	0.00003855	528
881	313	0.00004543	528
881	321	0.00005231	528
881	329	0.00005919	528
881	339	0.00006607	528
882	236	0.00001791	528
882	269	0.00002479	528
882	285	0.00003167	528
882	301	0.00003855	528
882	313	0.00004543	528
882	321	0.00005231	528
882	329	0.00005919	528
882	339	0.00006607	528
883	236	0.00001791	0
883	269	0.00002479	0
883	285	0.00003167	0
883	301	0.00003855	0
883	313	0.00004543	0
883	321	0.00005231	0
883	329	0.00005919	0
883	339	0.00006607	0
884	236	0.00001791	528
884	269	0.00002479	528
884	285	0.00003167	528
884	301	0.00003855	528
884	313	0.00004543	528
884	321	0.00005231	528
884	329	0.00005919	528
884	339	0.00006607	528
885	236	0.00001791	528
885	269	0.00002479	528
885	285	0.00003167	528
885	301	0.00003855	528
885	313	0.00004543	528
885	321	0.00005231	528
885	329	0.00005919	528
885	339	0.00006607	528
886	236	0.00001791	528
886	269	0.00002479	528
886	285	0.00003167	528
886	301	0.00003855	528
886	313	0.00004543	528
886	321	0.00005231	528
886	329	0.00005919	528
886	339	0.00006607	528
887	236	0.00001791	528
887	269	0.00002479	528
887	285	0.00003167	528
887	301	0.00003855	528
887	313	0.00004543	528
887	321	0.00005231	528
887	329	0.00005919	528
887	339	0.00006607	528
888	236	0.00001791	528
888	269	0.00002479	528
888	285	0.00003167	528
888	301	0.00003855	528
888	313	0.00004543	528
888	321	0.00005231	528
888	329	0.00005919	528
888	339	0.00006607	528
889	236	0.00001791	528
889	269	0.00002479	528
889	285	0.00003167	528
889	301	0.00003855	528
889	313	0.00004543	528
889	321	0.00005231	528
889	329	0.00005919	528
889	339	0.00006607	528
890	236	0.00001791	592
890	269	0.00002479	592
890	285	0.00003167	592
890	301	0.00003855	592
890	313	0.00004543	592
890	321	0.00005231	592
890	329	0.00005919	592
890	339	0.00006607	592
891	236	0.00001791	592
891	269	0.00002479	592
891	285	0.00003167	592
891	301	0.00003855	592
891	313	0.00004543	592
891	321	0.00005231	592
891	329	0.00005919	592
891	339	0.00006607	592
892	236	0.00001791	592
892	269	0.00002479	592
892	285	0.00003167	592
892	301	0.00003855	592
892	313	0.00004543	592
892	321	0.00005231	592
892	329	0.00005919	592
892	339	0.00006607	592
893	257	0.00002383	5.92e-06
893	274	0.00003071	5.92e-06
893	290	0.00003759	5.92e-06
893	306	0.00004447	5.92e-06
893	314	0.00005135	5.92e-06
893	322	0.00005823	5.92e-06
893	332	0.00006511	5.92e-06
893	340	0.00007199	5.92e-06
894	258	0.00002388	5.92e-06
894	275	0.00003076	5.92e-06
894	291	0.00003764	5.92e-06
894	307	0.00004452	5.92e-06
894	315	0.0000514	5.92e-06
894	323	0.00005828	5.92e-06
894	333	0.00006516	5.92e-06
894	341	0.00007204	5.92e-06
895	258	0.00002388	592
895	275	0.00003076	592
895	291	0.00003764	592
895	307	0.00004452	592
895	315	0.0000514	592
895	323	0.00005828	592
895	333	0.00006516	592
895	341	0.00007204	592
896	258	0.00002388	592
896	275	0.00003076	592
896	291	0.00003764	592
896	307	0.00004452	592
896	315	0.0000514	592
896	323	0.00005828	592
896	333	0.00006516	592
896	341	0.00007204	592
897	258	0.00002388	592
897	275	0.00003076	592
897	291	0.00003764	592
897	307	0.00004452	592
897	315	0.0000514	592
897	323	0.00005828	592
897	333	0.00006516	592
897	341	0.00007204	592
898	258	0.00002388	528
898	275	0.00003076	528
898	291	0.00003764	528
898	307	0.00004452	528
898	315	0.0000514	528
898	323	0.00005828	528
898	333	0.00006516	528
898	341	0.00007204	528
899	258	0.00002388	528
899	275	0.00003076	528
899	291	0.00003764	528
899	307	0.00004452	528
899	315	0.0000514	528
899	323	0.00005828	528
899	333	0.00006516	528
899	341	0.00007204	528
900	258	0.00002388	528
900	275	0.00003076	528
900	291	0.00003764	528
900	307	0.00004452	528
900	315	0.0000514	528
900	323	0.00005828	528
900	333	0.00006516	528
900	341	0.00007204	528
901	258	0.00002388	528
901	275	0.00003076	528
901	291	0.00003764	528
901	307	0.00004452	528
901	315	0.0000514	528
901	323	0.00005828	528
901	333	0.00006516	528
901	341	0.00007204	528
902	258	0.00002388	528
902	275	0.00003076	528
902	291	0.00003764	528
902	307	0.00004452	528
902	315	0.0000514	528
902	323	0.00005828	528
902	333	0.00006516	528
902	341	0.00007204	528
903	258	0.00002388	528
903	275	0.00003076	528
903	291	0.00003764	528
903	307	0.00004452	528
903	315	0.0000514	528
903	323	0.00005828	528
903	333	0.00006516	528
903	341	0.00007204	528
904	258	0.00002388	496
904	275	0.00003076	496
904	291	0.00003764	496
904	307	0.00004452	496
904	315	0.0000514	496
904	323	0.00005828	496
904	333	0.00006516	496
904	341	0.00007204	496
905	258	0.00002388	496
905	275	0.00003076	496
905	291	0.00003764	496
905	307	0.00004452	496
905	315	0.0000514	496
905	323	0.00005828	496
905	333	0.00006516	496
905	341	0.00007204	496
906	258	0.00002388	384
906	275	0.00003076	384
906	291	0.00003764	384
906	307	0.00004452	384
906	315	0.0000514	384
906	323	0.00005828	384
906	333	0.00006516	384
906	341	0.00007204	384
907	258	0.00002388	384
907	275	0.00003076	384
907	291	0.00003764	384
907	307	0.00004452	384
907	315	0.0000514	384
907	323	0.00005828	384
907	333	0.00006516	384
907	341	0.00007204	384
908	258	0.00002388	352
908	275	0.00003076	352
908	291	0.00003764	352
908	307	0.00004452	352
908	315	0.0000514	352
908	323	0.00005828	352
908	333	0.00006516	352
908	341	0.00007204	352
909	258	0.00002388	352
909	275	0.00003076	352
909	291	0.00003764	352
909	307	0.00004452	352
909	315	0.0000514	352
909	323	0.00005828	352
909	333	0.00006516	352
909	341	0.00007204	352
910	258	0.00002388	352
910	275	0.00003076	352
910	291	0.00003764	352
910	307	0.00004452	352
910	315	0.0000514	352
910	323	0.00005828	352
910	333	0.00006516	352
910	341	0.00007204	352
911	260	0.00002388	24
911	277	0.00003076	24
911	293	0.00003764	24
911	309	0.00004452	24
911	317	0.0000514	24
911	325	0.00005828	24
911	335	0.00006516	24
911	343	0.00007204	24
912	261	0.00002388	16
912	278	0.00003076	16
912	294	0.00003764	16
912	310	0.00004452	16
912	318	0.0000514	16
912	326	0.00005828	16
912	336	0.00006516	16
912	344	0.00007204	16
913	262	0.00002388	128
913	279	0.00003076	128
913	295	0.00003764	128
913	311	0.00004452	128
913	319	0.0000514	128
913	327	0.00005828	128
913	337	0.00006516	128
913	345	0.00007204	128
914	262	0.00002388	128
914	279	0.00003076	128
914	295	0.00003764	128
914	311	0.00004452	128
914	319	0.0000514	128
914	327	0.00005828	128
914	337	0.00006516	128
914	345	0.00007204	128
915	279	0.00002388	2.388e-05
915	295	0.00003076	3.076e-05
915	311	0.00003764	3.764e-05
915	319	0.00004452	4.452e-05
915	327	0.0000514	5.14e-05
915	337	0.00005828	5.828e-05
915	345	0.00006516	6.516e-05
916	279	0.00002388	2.388e-05
916	295	0.00003076	6.88e-06
916	311	0.00003764	6.88e-06
916	319	0.00004452	6.88e-06
916	327	0.0000514	6.88e-06
916	337	0.00005828	6.88e-06
916	345	0.00006516	6.88e-06
917	279	0.00002388	0
917	295	0.00003076	-3.44e-06
917	311	0.00003764	-6.88e-06
917	319	0.00004452	-1.032e-05
917	327	0.0000514	-1.376e-05
917	337	0.00005828	-1.72e-05
917	345	0.00006516	-2.064e-05
918	279	0.00002388	0
918	295	0.00003076	3.4400000006521e-06
918	311	0.00003764	5.6174964776982e-06
918	319	0.00004452	7.6920738437808e-06
918	327	0.0000514	9.7297893105975e-06
918	337	0.00005828	1.1749836880088e-05
918	345	0.00006516	1.3760000002134e-05
100	371	0.000502	0
102	371	0.000502	0
104	371	0.000502	0
106	371	0.000502	0
108	371	0.000502	0
110	371	0.000502	0
112	371	0.000502	0
114	371	0.000502	0
116	371	0.000502	0
118	371	0.000502	0
120	371	0.000502	0
122	371	0.000502	0
124	371	0.000502	0
126	371	0.000502	0
128	371	0.000502	0
130	371	0.000502	0
132	371	0.000502	0
134	371	0.000502	0
136	371	0.000502	0
138	371	0.000502	0
140	371	0.000502	0
142	371	0.000502	0
144	371	0.000502	0
146	371	0.000502	0
148	371	0.000502	0
150	371	0.000502	0
152	371	0.000502	0
154	371	0.000502	0
156	371	0.000502	0
158	371	0.000502	0
160	371	0.000502	0
162	371	0.000502	0
164	371	0.000502	0
166	371	0.000502	0
168	371	0.000502	0
170	371	0.000502	0
172	371	0.000502	0
174	371	0.000502	0
176	371	0.000502	0
178	371	0.000502	0
180	371	0.000502	0
182	371	0.000502	0
184	371	0.000502	0
186	371	0.000502	0
188	371	0.000502	0
190	371	0.000502	0
192	371	0.000502	0
194	371	0.000502	0
196	371	0.000502	0
198	371	0.000502	0
200	371	0.000502	0
202	371	0.000502	0
204	371	0.000502	0
206	371	0.000502	0

