file 67065 1734321358                                           
version 3
run config1-0-20241216-04:55:50-6573
attr configname config1
attr datetime 20241216-04:55:50
attr datetimef 20241216-045550
attr experiment config1
attr inifile omnetpp.ini
attr iterationvars ""
attr iterationvarsd ""
attr iterationvarsf ""
attr measurement ""
attr network Topology
attr processid 6573
attr repetition 0
attr replication #0
attr resultdir results
attr runnumber 0
attr seedset 0
config image-path ../../simu5G/images:../../inet4.5/images
config extends General
config *.server.app[1..30].source.initialProductionOffset 10ms
config network Topology
config *.switch1.macTable.forwardingTable "[{address:\"0A-AA-00-00-00-01\", interface:\"eth2\"}]"
config *.switch2.macTable.forwardingTable "[{address:\"0A-AA-00-00-00-01\", interface:\"eth2\"}]"
config *.switch3.macTable.forwardingTable "[{address:\"0A-AA-00-00-00-01\", interface:\"eth2\"}]"
config *.switch4.macTable.forwardingTable "[{address:\"0A-AA-00-00-00-01\", interface:\"eth2\"}]"
config *.switch5.macTable.forwardingTable "[{address:\"0A-AA-00-00-00-01\", interface:\"eth2\"}]"
config *.switch6.macTable.forwardingTable "[{address:\"0A-AA-00-00-00-01\", interface:\"eth2\"}]"
config *.switch7.macTable.forwardingTable "[{address:\"0A-AA-00-00-00-01\", interface:\"eth0\"}]"
config **.li.filePath "\"/home/simu5g/simu5g-workspace/test/iatest/path.txt\""
config *.*.hasOutgoingStreams true
config **.ipv4.arp.typename GlobalArp
config *.*Client*.bridging.streamIdentifier.identifier.mapping "[{stream: \"besteffort\", packetFilter: expr(has(udp) && udp.destPort == 1000)},\n\t\t\t\t\t\t\t\t\t\t\t\t\t\t\t{stream: \"video\", packetFilter: expr(has(udp) && udp.destPort == 1001)}]"
config *.*Client*.bridging.streamCoder.encoder.mapping "[{stream: \"besteffort\", pcp: 0},\n\t\t\t\t\t\t\t\t\t\t\t\t\t{stream: \"video\", pcp: 4}]"
config *.server.bridging.streamIdentifier.identifier.mapping "[{stream: \"besteffort\", packetFilter: expr(has(udp) && udp.destPort == 1000)},\n\t\t\t\t\t\t\t\t\t\t\t\t\t\t\t{stream: \"video\", packetFilter: expr(has(udp) && udp.destPort == 1001)}]"
config *.server.bridging.streamCoder.encoder.mapping "[{stream: \"besteffort\", pcp: 0},\n\t\t\t\t\t\t\t\t\t\t\t\t\t{stream: \"video\", pcp: 4}]"
config *.switch*.hasEgressTrafficShaping true
config *.switch*.bridging.directionReverser.reverser.excludeEncapsulationProtocols "[\"ieee8021qctag\"]"
config *.switch*.bridging.streamIdentifier.identifier.mapping "[{stream: \"besteffort\", packetFilter: expr(has(udp) && udp.destPort == 1000)},\n\t\t\t\t\t\t\t\t\t\t\t\t\t\t\t{stream: \"video\", packetFilter: expr(has(udp) && udp.destPort == 1001)}]"
config *.switch*.bridging.streamCoder.encoder.mapping "[{stream: \"besteffort\", pcp: 0},\n\t\t\t\t\t\t\t\t\t\t\t\t\t{stream: \"video\", pcp: 4}]"
config *.switch*.bridging.streamCoder.decoder.mapping "[{pcp: 0, stream: \"besteffort\"},\n                                                 {pcp: 4, stream: \"video\"}]"
config *.switch*.eth[*].macLayer.queue.numTrafficClasses 2
config *.switch*.eth[*].macLayer.queue.*[0].display-name besteffort
config *.switch*.eth[*].macLayer.queue.*[1].display-name video
config *.*Client*.numApps 2
config *.*Client*.app[0].typename UdpSourceApp
config *.*Client*.app[0].display-name besteffort
config *.*Client*.app[0].io.destAddress "\"server\""
config *.*Client*.app[0].io.destPort 1000
config *.*Client*.app[0].io.localPort 1000
config *.*Client*.app[0].source.packetLength 16B
config *.*Client*.app[0].source.productionInterval 2ms
config *.*Client*.app[0].source.initialProductionOffset 0s
config *.*Client*.app[1].typename UdpSinkApp
config *.*Client*.app[1].display-name video
config *.*Client*.app[1].io.localPort 1001
config *.server.numApps 31
config *.server.app[0].typename UdpSinkApp
config *.server.app[0].display-name besteffort
config *.server.app[0].io.localPort 1000
config *.server.app[1..30].typename UdpSourceApp
config *.server.app[1..30].display-name video
config *.server.app[1..30].io.destPort 1001
config *.server.app[1..30].io.localPort 1000+ancestorIndex(1)
config *.server.app[1..10].source.packetLength 160B
config *.server.app[11..20].source.packetLength 320B
config *.server.app[21..30].source.packetLength 240B
config *.server.app[1..10].source.productionInterval 1ms
config *.server.app[11..20].source.productionInterval 2ms
config *.server.app[21..30].source.productionInterval 3ms
config *.server.app[1..5].io.destAddress "\"HVACClient[0]\""
config *.server.app[6..9].io.destAddress "\"HVACClient[1]\""
config *.server.app[10..14].io.destAddress "\"HVACClient[2]\""
config *.server.app[15..16].io.destAddress "\"HVACClient[3]\""
config *.server.app[17..20].io.destAddress "\"HVACClient[4]\""
config *.server.app[21..23].io.destAddress "\"HVACClient[5]\""
config *.server.app[24..27].io.destAddress "\"HVACClient[6]\""
config *.server.app[28..30].io.destAddress "\"HVACClient[7]\""

vector 0 Topology.server.eth[0].phyLayer.interFrameGapInserter interpacketGap:vector ETV
attr interpolationmode sample-hold
attr recordingmode vector
attr source "count(interpacketGapStarted) - count(interpacketGapEnded)"
attr title "interpacket gap state"
attr type int
vector 1 Topology.server.eth[0].phyLayer.transmitter transmitting:vector ETV
attr interpolationmode sample-hold
attr recordingmode vector
attr source "count(transmissionStarted) - count(transmissionEnded)"
attr title "transmitting state"
attr type int
vector 2 Topology.server.udp passedUpPk:vector(count) ETV
attr interpolationmode none
attr recordingmode vector(count)
attr source packetSentToUpper
attr title "packets passed up, count"
vector 3 Topology.server.udp droppedPkWrongPort:vector(count) ETV
attr interpolationmode none
attr recordingmode vector(count)
attr source packetDropReasonIsNoPortFound(packetDropped)
attr title "packets dropped (wrong port), count"
vector 4 Topology.server.udp droppedPkBadChecksum:vector(count) ETV
attr interpolationmode none
attr recordingmode vector(count)
attr source packetDropReasonIsIncorrectlyReceived(packetDropped)
attr title "packets dropped (checksum error), count"
vector 5 Topology.switch1.eth[0].phyLayer.interFrameGapInserter interpacketGap:vector ETV
attr interpolationmode sample-hold
attr recordingmode vector
attr source "count(interpacketGapStarted) - count(interpacketGapEnded)"
attr title "interpacket gap state"
attr type int
vector 6 Topology.switch1.eth[0].phyLayer.transmitter transmitting:vector ETV
attr interpolationmode sample-hold
attr recordingmode vector
attr source "count(transmissionStarted) - count(transmissionEnded)"
attr title "transmitting state"
attr type int
vector 7 Topology.switch1.eth[1].phyLayer.interFrameGapInserter interpacketGap:vector ETV
attr interpolationmode sample-hold
attr recordingmode vector
attr source "count(interpacketGapStarted) - count(interpacketGapEnded)"
attr title "interpacket gap state"
attr type int
vector 8 Topology.switch1.eth[1].phyLayer.transmitter transmitting:vector ETV
attr interpolationmode sample-hold
attr recordingmode vector
attr source "count(transmissionStarted) - count(transmissionEnded)"
attr title "transmitting state"
attr type int
vector 9 Topology.switch1.eth[2].phyLayer.interFrameGapInserter interpacketGap:vector ETV
attr interpolationmode sample-hold
attr recordingmode vector
attr source "count(interpacketGapStarted) - count(interpacketGapEnded)"
attr title "interpacket gap state"
attr type int
vector 10 Topology.switch1.eth[2].phyLayer.transmitter transmitting:vector ETV
attr interpolationmode sample-hold
attr recordingmode vector
attr source "count(transmissionStarted) - count(transmissionEnded)"
attr title "transmitting state"
attr type int
vector 11 Topology.switch1.eth[3].phyLayer.interFrameGapInserter interpacketGap:vector ETV
attr interpolationmode sample-hold
attr recordingmode vector
attr source "count(interpacketGapStarted) - count(interpacketGapEnded)"
attr title "interpacket gap state"
attr type int
vector 12 Topology.switch1.eth[3].phyLayer.transmitter transmitting:vector ETV
attr interpolationmode sample-hold
attr recordingmode vector
attr source "count(transmissionStarted) - count(transmissionEnded)"
attr title "transmitting state"
attr type int
vector 13 Topology.switch2.eth[0].phyLayer.interFrameGapInserter interpacketGap:vector ETV
attr interpolationmode sample-hold
attr recordingmode vector
attr source "count(interpacketGapStarted) - count(interpacketGapEnded)"
attr title "interpacket gap state"
attr type int
vector 14 Topology.switch2.eth[0].phyLayer.transmitter transmitting:vector ETV
attr interpolationmode sample-hold
attr recordingmode vector
attr source "count(transmissionStarted) - count(transmissionEnded)"
attr title "transmitting state"
attr type int
vector 15 Topology.switch2.eth[1].phyLayer.interFrameGapInserter interpacketGap:vector ETV
attr interpolationmode sample-hold
attr recordingmode vector
attr source "count(interpacketGapStarted) - count(interpacketGapEnded)"
attr title "interpacket gap state"
attr type int
vector 16 Topology.switch2.eth[1].phyLayer.transmitter transmitting:vector ETV
attr interpolationmode sample-hold
attr recordingmode vector
attr source "count(transmissionStarted) - count(transmissionEnded)"
attr title "transmitting state"
attr type int
vector 17 Topology.switch2.eth[2].phyLayer.interFrameGapInserter interpacketGap:vector ETV
attr interpolationmode sample-hold
attr recordingmode vector
attr source "count(interpacketGapStarted) - count(interpacketGapEnded)"
attr title "interpacket gap state"
attr type int
vector 18 Topology.switch2.eth[2].phyLayer.transmitter transmitting:vector ETV
attr interpolationmode sample-hold
attr recordingmode vector
attr source "count(transmissionStarted) - count(transmissionEnded)"
attr title "transmitting state"
attr type int
vector 19 Topology.switch2.eth[3].phyLayer.interFrameGapInserter interpacketGap:vector ETV
attr interpolationmode sample-hold
attr recordingmode vector
attr source "count(interpacketGapStarted) - count(interpacketGapEnded)"
attr title "interpacket gap state"
attr type int
vector 20 Topology.switch2.eth[3].phyLayer.transmitter transmitting:vector ETV
attr interpolationmode sample-hold
attr recordingmode vector
attr source "count(transmissionStarted) - count(transmissionEnded)"
attr title "transmitting state"
attr type int
vector 21 Topology.switch2.eth[4].phyLayer.interFrameGapInserter interpacketGap:vector ETV
attr interpolationmode sample-hold
attr recordingmode vector
attr source "count(interpacketGapStarted) - count(interpacketGapEnded)"
attr title "interpacket gap state"
attr type int
vector 22 Topology.switch2.eth[4].phyLayer.transmitter transmitting:vector ETV
attr interpolationmode sample-hold
attr recordingmode vector
attr source "count(transmissionStarted) - count(transmissionEnded)"
attr title "transmitting state"
attr type int
vector 23 Topology.switch3.eth[0].phyLayer.interFrameGapInserter interpacketGap:vector ETV
attr interpolationmode sample-hold
attr recordingmode vector
attr source "count(interpacketGapStarted) - count(interpacketGapEnded)"
attr title "interpacket gap state"
attr type int
vector 24 Topology.switch3.eth[0].phyLayer.transmitter transmitting:vector ETV
attr interpolationmode sample-hold
attr recordingmode vector
attr source "count(transmissionStarted) - count(transmissionEnded)"
attr title "transmitting state"
attr type int
vector 25 Topology.switch3.eth[1].phyLayer.interFrameGapInserter interpacketGap:vector ETV
attr interpolationmode sample-hold
attr recordingmode vector
attr source "count(interpacketGapStarted) - count(interpacketGapEnded)"
attr title "interpacket gap state"
attr type int
vector 26 Topology.switch3.eth[1].phyLayer.transmitter transmitting:vector ETV
attr interpolationmode sample-hold
attr recordingmode vector
attr source "count(transmissionStarted) - count(transmissionEnded)"
attr title "transmitting state"
attr type int
vector 27 Topology.switch3.eth[2].phyLayer.interFrameGapInserter interpacketGap:vector ETV
attr interpolationmode sample-hold
attr recordingmode vector
attr source "count(interpacketGapStarted) - count(interpacketGapEnded)"
attr title "interpacket gap state"
attr type int
vector 28 Topology.switch3.eth[2].phyLayer.transmitter transmitting:vector ETV
attr interpolationmode sample-hold
attr recordingmode vector
attr source "count(transmissionStarted) - count(transmissionEnded)"
attr title "transmitting state"
attr type int
vector 29 Topology.switch3.eth[3].phyLayer.interFrameGapInserter interpacketGap:vector ETV
attr interpolationmode sample-hold
attr recordingmode vector
attr source "count(interpacketGapStarted) - count(interpacketGapEnded)"
attr title "interpacket gap state"
attr type int
vector 30 Topology.switch3.eth[3].phyLayer.transmitter transmitting:vector ETV
attr interpolationmode sample-hold
attr recordingmode vector
attr source "count(transmissionStarted) - count(transmissionEnded)"
attr title "transmitting state"
attr type int
vector 31 Topology.switch3.eth[4].phyLayer.interFrameGapInserter interpacketGap:vector ETV
attr interpolationmode sample-hold
attr recordingmode vector
attr source "count(interpacketGapStarted) - count(interpacketGapEnded)"
attr title "interpacket gap state"
attr type int
vector 32 Topology.switch3.eth[4].phyLayer.transmitter transmitting:vector ETV
attr interpolationmode sample-hold
attr recordingmode vector
attr source "count(transmissionStarted) - count(transmissionEnded)"
attr title "transmitting state"
attr type int
vector 33 Topology.switch4.eth[0].phyLayer.interFrameGapInserter interpacketGap:vector ETV
attr interpolationmode sample-hold
attr recordingmode vector
attr source "count(interpacketGapStarted) - count(interpacketGapEnded)"
attr title "interpacket gap state"
attr type int
vector 34 Topology.switch4.eth[0].phyLayer.transmitter transmitting:vector ETV
attr interpolationmode sample-hold
attr recordingmode vector
attr source "count(transmissionStarted) - count(transmissionEnded)"
attr title "transmitting state"
attr type int
vector 35 Topology.switch4.eth[1].phyLayer.interFrameGapInserter interpacketGap:vector ETV
attr interpolationmode sample-hold
attr recordingmode vector
attr source "count(interpacketGapStarted) - count(interpacketGapEnded)"
attr title "interpacket gap state"
attr type int
vector 36 Topology.switch4.eth[1].phyLayer.transmitter transmitting:vector ETV
attr interpolationmode sample-hold
attr recordingmode vector
attr source "count(transmissionStarted) - count(transmissionEnded)"
attr title "transmitting state"
attr type int
vector 37 Topology.switch4.eth[2].phyLayer.interFrameGapInserter interpacketGap:vector ETV
attr interpolationmode sample-hold
attr recordingmode vector
attr source "count(interpacketGapStarted) - count(interpacketGapEnded)"
attr title "interpacket gap state"
attr type int
vector 38 Topology.switch4.eth[2].phyLayer.transmitter transmitting:vector ETV
attr interpolationmode sample-hold
attr recordingmode vector
attr source "count(transmissionStarted) - count(transmissionEnded)"
attr title "transmitting state"
attr type int
vector 39 Topology.switch4.eth[3].phyLayer.interFrameGapInserter interpacketGap:vector ETV
attr interpolationmode sample-hold
attr recordingmode vector
attr source "count(interpacketGapStarted) - count(interpacketGapEnded)"
attr title "interpacket gap state"
attr type int
vector 40 Topology.switch4.eth[3].phyLayer.transmitter transmitting:vector ETV
attr interpolationmode sample-hold
attr recordingmode vector
attr source "count(transmissionStarted) - count(transmissionEnded)"
attr title "transmitting state"
attr type int
vector 41 Topology.switch5.eth[0].phyLayer.interFrameGapInserter interpacketGap:vector ETV
attr interpolationmode sample-hold
attr recordingmode vector
attr source "count(interpacketGapStarted) - count(interpacketGapEnded)"
attr title "interpacket gap state"
attr type int
vector 42 Topology.switch5.eth[0].phyLayer.transmitter transmitting:vector ETV
attr interpolationmode sample-hold
attr recordingmode vector
attr source "count(transmissionStarted) - count(transmissionEnded)"
attr title "transmitting state"
attr type int
vector 43 Topology.switch5.eth[1].phyLayer.interFrameGapInserter interpacketGap:vector ETV
attr interpolationmode sample-hold
attr recordingmode vector
attr source "count(interpacketGapStarted) - count(interpacketGapEnded)"
attr title "interpacket gap state"
attr type int
vector 44 Topology.switch5.eth[1].phyLayer.transmitter transmitting:vector ETV
attr interpolationmode sample-hold
attr recordingmode vector
attr source "count(transmissionStarted) - count(transmissionEnded)"
attr title "transmitting state"
attr type int
vector 45 Topology.switch5.eth[2].phyLayer.interFrameGapInserter interpacketGap:vector ETV
attr interpolationmode sample-hold
attr recordingmode vector
attr source "count(interpacketGapStarted) - count(interpacketGapEnded)"
attr title "interpacket gap state"
attr type int
vector 46 Topology.switch5.eth[2].phyLayer.transmitter transmitting:vector ETV
attr interpolationmode sample-hold
attr recordingmode vector
attr source "count(transmissionStarted) - count(transmissionEnded)"
attr title "transmitting state"
attr type int
vector 47 Topology.switch6.eth[0].phyLayer.interFrameGapInserter interpacketGap:vector ETV
attr interpolationmode sample-hold
attr recordingmode vector
attr source "count(interpacketGapStarted) - count(interpacketGapEnded)"
attr title "interpacket gap state"
attr type int
vector 48 Topology.switch6.eth[0].phyLayer.transmitter transmitting:vector ETV
attr interpolationmode sample-hold
attr recordingmode vector
attr source "count(transmissionStarted) - count(transmissionEnded)"
attr title "transmitting state"
attr type int
vector 49 Topology.switch6.eth[1].phyLayer.interFrameGapInserter interpacketGap:vector ETV
attr interpolationmode sample-hold
attr recordingmode vector
attr source "count(interpacketGapStarted) - count(interpacketGapEnded)"
attr title "interpacket gap state"
attr type int
vector 50 Topology.switch6.eth[1].phyLayer.transmitter transmitting:vector ETV
attr interpolationmode sample-hold
attr recordingmode vector
attr source "count(transmissionStarted) - count(transmissionEnded)"
attr title "transmitting state"
attr type int
vector 51 Topology.switch6.eth[2].phyLayer.interFrameGapInserter interpacketGap:vector ETV
attr interpolationmode sample-hold
attr recordingmode vector
attr source "count(interpacketGapStarted) - count(interpacketGapEnded)"
attr title "interpacket gap state"
attr type int
vector 52 Topology.switch6.eth[2].phyLayer.transmitter transmitting:vector ETV
attr interpolationmode sample-hold
attr recordingmode vector
attr source "count(transmissionStarted) - count(transmissionEnded)"
attr title "transmitting state"
attr type int
vector 53 Topology.switch7.eth[0].phyLayer.interFrameGapInserter interpacketGap:vector ETV
attr interpolationmode sample-hold
attr recordingmode vector
attr source "count(interpacketGapStarted) - count(interpacketGapEnded)"
attr title "interpacket gap state"
attr type int
vector 54 Topology.switch7.eth[0].phyLayer.transmitter transmitting:vector ETV
attr interpolationmode sample-hold
attr recordingmode vector
attr source "count(transmissionStarted) - count(transmissionEnded)"
attr title "transmitting state"
attr type int
vector 55 Topology.switch7.eth[1].phyLayer.interFrameGapInserter interpacketGap:vector ETV
attr interpolationmode sample-hold
attr recordingmode vector
attr source "count(interpacketGapStarted) - count(interpacketGapEnded)"
attr title "interpacket gap state"
attr type int
vector 56 Topology.switch7.eth[1].phyLayer.transmitter transmitting:vector ETV
attr interpolationmode sample-hold
attr recordingmode vector
attr source "count(transmissionStarted) - count(transmissionEnded)"
attr title "transmitting state"
attr type int
vector 57 Topology.switch7.eth[2].phyLayer.interFrameGapInserter interpacketGap:vector ETV
attr interpolationmode sample-hold
attr recordingmode vector
attr source "count(interpacketGapStarted) - count(interpacketGapEnded)"
attr title "interpacket gap state"
attr type int
vector 58 Topology.switch7.eth[2].phyLayer.transmitter transmitting:vector ETV
attr interpolationmode sample-hold
attr recordingmode vector
attr source "count(transmissionStarted) - count(transmissionEnded)"
attr title "transmitting state"
attr type int
vector 59 Topology.HVACClient[0].eth[0].phyLayer.interFrameGapInserter interpacketGap:vector ETV
attr interpolationmode sample-hold
attr recordingmode vector
attr source "count(interpacketGapStarted) - count(interpacketGapEnded)"
attr title "interpacket gap state"
attr type int
vector 60 Topology.HVACClient[0].eth[0].phyLayer.transmitter transmitting:vector ETV
attr interpolationmode sample-hold
attr recordingmode vector
attr source "count(transmissionStarted) - count(transmissionEnded)"
attr title "transmitting state"
attr type int
vector 61 Topology.HVACClient[0].udp passedUpPk:vector(count) ETV
attr interpolationmode none
attr recordingmode vector(count)
attr source packetSentToUpper
attr title "packets passed up, count"
vector 62 Topology.HVACClient[0].udp droppedPkWrongPort:vector(count) ETV
attr interpolationmode none
attr recordingmode vector(count)
attr source packetDropReasonIsNoPortFound(packetDropped)
attr title "packets dropped (wrong port), count"
vector 63 Topology.HVACClient[0].udp droppedPkBadChecksum:vector(count) ETV
attr interpolationmode none
attr recordingmode vector(count)
attr source packetDropReasonIsIncorrectlyReceived(packetDropped)
attr title "packets dropped (checksum error), count"
vector 64 Topology.HVACClient[1].eth[0].phyLayer.interFrameGapInserter interpacketGap:vector ETV
attr interpolationmode sample-hold
attr recordingmode vector
attr source "count(interpacketGapStarted) - count(interpacketGapEnded)"
attr title "interpacket gap state"
attr type int
vector 65 Topology.HVACClient[1].eth[0].phyLayer.transmitter transmitting:vector ETV
attr interpolationmode sample-hold
attr recordingmode vector
attr source "count(transmissionStarted) - count(transmissionEnded)"
attr title "transmitting state"
attr type int
vector 66 Topology.HVACClient[1].udp passedUpPk:vector(count) ETV
attr interpolationmode none
attr recordingmode vector(count)
attr source packetSentToUpper
attr title "packets passed up, count"
vector 67 Topology.HVACClient[1].udp droppedPkWrongPort:vector(count) ETV
attr interpolationmode none
attr recordingmode vector(count)
attr source packetDropReasonIsNoPortFound(packetDropped)
attr title "packets dropped (wrong port), count"
vector 68 Topology.HVACClient[1].udp droppedPkBadChecksum:vector(count) ETV
attr interpolationmode none
attr recordingmode vector(count)
attr source packetDropReasonIsIncorrectlyReceived(packetDropped)
attr title "packets dropped (checksum error), count"
vector 69 Topology.HVACClient[2].eth[0].phyLayer.interFrameGapInserter interpacketGap:vector ETV
attr interpolationmode sample-hold
attr recordingmode vector
attr source "count(interpacketGapStarted) - count(interpacketGapEnded)"
attr title "interpacket gap state"
attr type int
vector 70 Topology.HVACClient[2].eth[0].phyLayer.transmitter transmitting:vector ETV
attr interpolationmode sample-hold
attr recordingmode vector
attr source "count(transmissionStarted) - count(transmissionEnded)"
attr title "transmitting state"
attr type int
vector 71 Topology.HVACClient[2].udp passedUpPk:vector(count) ETV
attr interpolationmode none
attr recordingmode vector(count)
attr source packetSentToUpper
attr title "packets passed up, count"
vector 72 Topology.HVACClient[2].udp droppedPkWrongPort:vector(count) ETV
attr interpolationmode none
attr recordingmode vector(count)
attr source packetDropReasonIsNoPortFound(packetDropped)
attr title "packets dropped (wrong port), count"
vector 73 Topology.HVACClient[2].udp droppedPkBadChecksum:vector(count) ETV
attr interpolationmode none
attr recordingmode vector(count)
attr source packetDropReasonIsIncorrectlyReceived(packetDropped)
attr title "packets dropped (checksum error), count"
vector 74 Topology.HVACClient[3].eth[0].phyLayer.interFrameGapInserter interpacketGap:vector ETV
attr interpolationmode sample-hold
attr recordingmode vector
attr source "count(interpacketGapStarted) - count(interpacketGapEnded)"
attr title "interpacket gap state"
attr type int
vector 75 Topology.HVACClient[3].eth[0].phyLayer.transmitter transmitting:vector ETV
attr interpolationmode sample-hold
attr recordingmode vector
attr source "count(transmissionStarted) - count(transmissionEnded)"
attr title "transmitting state"
attr type int
vector 76 Topology.HVACClient[3].udp passedUpPk:vector(count) ETV
attr interpolationmode none
attr recordingmode vector(count)
attr source packetSentToUpper
attr title "packets passed up, count"
vector 77 Topology.HVACClient[3].udp droppedPkWrongPort:vector(count) ETV
attr interpolationmode none
attr recordingmode vector(count)
attr source packetDropReasonIsNoPortFound(packetDropped)
attr title "packets dropped (wrong port), count"
vector 78 Topology.HVACClient[3].udp droppedPkBadChecksum:vector(count) ETV
attr interpolationmode none
attr recordingmode vector(count)
attr source packetDropReasonIsIncorrectlyReceived(packetDropped)
attr title "packets dropped (checksum error), count"
vector 79 Topology.HVACClient[4].eth[0].phyLayer.interFrameGapInserter interpacketGap:vector ETV
attr interpolationmode sample-hold
attr recordingmode vector
attr source "count(interpacketGapStarted) - count(interpacketGapEnded)"
attr title "interpacket gap state"
attr type int
vector 80 Topology.HVACClient[4].eth[0].phyLayer.transmitter transmitting:vector ETV
attr interpolationmode sample-hold
attr recordingmode vector
attr source "count(transmissionStarted) - count(transmissionEnded)"
attr title "transmitting state"
attr type int
vector 81 Topology.HVACClient[4].udp passedUpPk:vector(count) ETV
attr interpolationmode none
attr recordingmode vector(count)
attr source packetSentToUpper
attr title "packets passed up, count"
vector 82 Topology.HVACClient[4].udp droppedPkWrongPort:vector(count) ETV
attr interpolationmode none
attr recordingmode vector(count)
attr source packetDropReasonIsNoPortFound(packetDropped)
attr title "packets dropped (wrong port), count"
vector 83 Topology.HVACClient[4].udp droppedPkBadChecksum:vector(count) ETV
attr interpolationmode none
attr recordingmode vector(count)
attr source packetDropReasonIsIncorrectlyReceived(packetDropped)
attr title "packets dropped (checksum error), count"
vector 84 Topology.HVACClient[5].eth[0].phyLayer.interFrameGapInserter interpacketGap:vector ETV
attr interpolationmode sample-hold
attr recordingmode vector
attr source "count(interpacketGapStarted) - count(interpacketGapEnded)"
attr title "interpacket gap state"
attr type int
vector 85 Topology.HVACClient[5].eth[0].phyLayer.transmitter transmitting:vector ETV
attr interpolationmode sample-hold
attr recordingmode vector
attr source "count(transmissionStarted) - count(transmissionEnded)"
attr title "transmitting state"
attr type int
vector 86 Topology.HVACClient[5].udp passedUpPk:vector(count) ETV
attr interpolationmode none
attr recordingmode vector(count)
attr source packetSentToUpper
attr title "packets passed up, count"
vector 87 Topology.HVACClient[5].udp droppedPkWrongPort:vector(count) ETV
attr interpolationmode none
attr recordingmode vector(count)
attr source packetDropReasonIsNoPortFound(packetDropped)
attr title "packets dropped (wrong port), count"
vector 88 Topology.HVACClient[5].udp droppedPkBadChecksum:vector(count) ETV
attr interpolationmode none
attr recordingmode vector(count)
attr source packetDropReasonIsIncorrectlyReceived(packetDropped)
attr title "packets dropped (checksum error), count"
vector 89 Topology.HVACClient[6].eth[0].phyLayer.interFrameGapInserter interpacketGap:vector ETV
attr interpolationmode sample-hold
attr recordingmode vector
attr source "count(interpacketGapStarted) - count(interpacketGapEnded)"
attr title "interpacket gap state"
attr type int
vector 90 Topology.HVACClient[6].eth[0].phyLayer.transmitter transmitting:vector ETV
attr interpolationmode sample-hold
attr recordingmode vector
attr source "count(transmissionStarted) - count(transmissionEnded)"
attr title "transmitting state"
attr type int
vector 91 Topology.HVACClient[6].udp passedUpPk:vector(count) ETV
attr interpolationmode none
attr recordingmode vector(count)
attr source packetSentToUpper
attr title "packets passed up, count"
vector 92 Topology.HVACClient[6].udp droppedPkWrongPort:vector(count) ETV
attr interpolationmode none
attr recordingmode vector(count)
attr source packetDropReasonIsNoPortFound(packetDropped)
attr title "packets dropped (wrong port), count"
vector 93 Topology.HVACClient[6].udp droppedPkBadChecksum:vector(count) ETV
attr interpolationmode none
attr recordingmode vector(count)
attr source packetDropReasonIsIncorrectlyReceived(packetDropped)
attr title "packets dropped (checksum error), count"
vector 94 Topology.HVACClient[7].eth[0].phyLayer.interFrameGapInserter interpacketGap:vector ETV
attr interpolationmode sample-hold
attr recordingmode vector
attr source "count(interpacketGapStarted) - count(interpacketGapEnded)"
attr title "interpacket gap state"
attr type int
vector 95 Topology.HVACClient[7].eth[0].phyLayer.transmitter transmitting:vector ETV
attr interpolationmode sample-hold
attr recordingmode vector
attr source "count(transmissionStarted) - count(transmissionEnded)"
attr title "transmitting state"
attr type int
vector 96 Topology.HVACClient[7].udp passedUpPk:vector(count) ETV
attr interpolationmode none
attr recordingmode vector(count)
attr source packetSentToUpper
attr title "packets passed up, count"
vector 97 Topology.HVACClient[7].udp droppedPkWrongPort:vector(count) ETV
attr interpolationmode none
attr recordingmode vector(count)
attr source packetDropReasonIsNoPortFound(packetDropped)
attr title "packets dropped (wrong port), count"
vector 98 Topology.HVACClient[7].udp droppedPkBadChecksum:vector(count) ETV
attr interpolationmode none
attr recordingmode vector(count)
attr source packetDropReasonIsIncorrectlyReceived(packetDropped)
attr title "packets dropped (checksum error), count"
vector 99 Topology.switch1.eth[0].macLayer.queue.transmissionGate[0] gateState:vector ETV
attr enum CLOSED,OPEN
attr interpolationmode sample-hold
attr moduledisplaypath Topology.switch1.eth[0].macLayer.queue.besteffort
attr recordingmode vector
attr source gateStateChanged
attr title "gate state"
attr type enum
vector 100 Topology.switch1.eth[0].macLayer.queue.transmissionGate[0] guardBandState:vector ETV
attr enum ON,OFF
attr interpolationmode sample-hold
attr moduledisplaypath Topology.switch1.eth[0].macLayer.queue.besteffort
attr recordingmode vector
attr source guardBandStateChanged
attr title "guard band state"
attr type enum
vector 101 Topology.switch1.eth[0].macLayer.queue.transmissionGate[1] gateState:vector ETV
attr enum CLOSED,OPEN
attr interpolationmode sample-hold
attr moduledisplaypath Topology.switch1.eth[0].macLayer.queue.video
attr recordingmode vector
attr source gateStateChanged
attr title "gate state"
attr type enum
vector 102 Topology.switch1.eth[0].macLayer.queue.transmissionGate[1] guardBandState:vector ETV
attr enum ON,OFF
attr interpolationmode sample-hold
attr moduledisplaypath Topology.switch1.eth[0].macLayer.queue.video
attr recordingmode vector
attr source guardBandStateChanged
attr title "guard band state"
attr type enum
vector 103 Topology.switch1.eth[1].macLayer.queue.transmissionGate[0] gateState:vector ETV
attr enum CLOSED,OPEN
attr interpolationmode sample-hold
attr moduledisplaypath Topology.switch1.eth[1].macLayer.queue.besteffort
attr recordingmode vector
attr source gateStateChanged
attr title "gate state"
attr type enum
vector 104 Topology.switch1.eth[1].macLayer.queue.transmissionGate[0] guardBandState:vector ETV
attr enum ON,OFF
attr interpolationmode sample-hold
attr moduledisplaypath Topology.switch1.eth[1].macLayer.queue.besteffort
attr recordingmode vector
attr source guardBandStateChanged
attr title "guard band state"
attr type enum
vector 105 Topology.switch1.eth[1].macLayer.queue.transmissionGate[1] gateState:vector ETV
attr enum CLOSED,OPEN
attr interpolationmode sample-hold
attr moduledisplaypath Topology.switch1.eth[1].macLayer.queue.video
attr recordingmode vector
attr source gateStateChanged
attr title "gate state"
attr type enum
vector 106 Topology.switch1.eth[1].macLayer.queue.transmissionGate[1] guardBandState:vector ETV
attr enum ON,OFF
attr interpolationmode sample-hold
attr moduledisplaypath Topology.switch1.eth[1].macLayer.queue.video
attr recordingmode vector
attr source guardBandStateChanged
attr title "guard band state"
attr type enum
vector 107 Topology.switch1.eth[2].macLayer.queue.transmissionGate[0] gateState:vector ETV
attr enum CLOSED,OPEN
attr interpolationmode sample-hold
attr moduledisplaypath Topology.switch1.eth[2].macLayer.queue.besteffort
attr recordingmode vector
attr source gateStateChanged
attr title "gate state"
attr type enum
vector 108 Topology.switch1.eth[2].macLayer.queue.transmissionGate[0] guardBandState:vector ETV
attr enum ON,OFF
attr interpolationmode sample-hold
attr moduledisplaypath Topology.switch1.eth[2].macLayer.queue.besteffort
attr recordingmode vector
attr source guardBandStateChanged
attr title "guard band state"
attr type enum
vector 109 Topology.switch1.eth[2].macLayer.queue.transmissionGate[1] gateState:vector ETV
attr enum CLOSED,OPEN
attr interpolationmode sample-hold
attr moduledisplaypath Topology.switch1.eth[2].macLayer.queue.video
attr recordingmode vector
attr source gateStateChanged
attr title "gate state"
attr type enum
vector 110 Topology.switch1.eth[2].macLayer.queue.transmissionGate[1] guardBandState:vector ETV
attr enum ON,OFF
attr interpolationmode sample-hold
attr moduledisplaypath Topology.switch1.eth[2].macLayer.queue.video
attr recordingmode vector
attr source guardBandStateChanged
attr title "guard band state"
attr type enum
vector 111 Topology.switch1.eth[3].macLayer.queue.transmissionGate[0] gateState:vector ETV
attr enum CLOSED,OPEN
attr interpolationmode sample-hold
attr moduledisplaypath Topology.switch1.eth[3].macLayer.queue.besteffort
attr recordingmode vector
attr source gateStateChanged
attr title "gate state"
attr type enum
vector 112 Topology.switch1.eth[3].macLayer.queue.transmissionGate[0] guardBandState:vector ETV
attr enum ON,OFF
attr interpolationmode sample-hold
attr moduledisplaypath Topology.switch1.eth[3].macLayer.queue.besteffort
attr recordingmode vector
attr source guardBandStateChanged
attr title "guard band state"
attr type enum
vector 113 Topology.switch1.eth[3].macLayer.queue.transmissionGate[1] gateState:vector ETV
attr enum CLOSED,OPEN
attr interpolationmode sample-hold
attr moduledisplaypath Topology.switch1.eth[3].macLayer.queue.video
attr recordingmode vector
attr source gateStateChanged
attr title "gate state"
attr type enum
vector 114 Topology.switch1.eth[3].macLayer.queue.transmissionGate[1] guardBandState:vector ETV
attr enum ON,OFF
attr interpolationmode sample-hold
attr moduledisplaypath Topology.switch1.eth[3].macLayer.queue.video
attr recordingmode vector
attr source guardBandStateChanged
attr title "guard band state"
attr type enum
vector 115 Topology.switch2.eth[0].macLayer.queue.transmissionGate[0] gateState:vector ETV
attr enum CLOSED,OPEN
attr interpolationmode sample-hold
attr moduledisplaypath Topology.switch2.eth[0].macLayer.queue.besteffort
attr recordingmode vector
attr source gateStateChanged
attr title "gate state"
attr type enum
vector 116 Topology.switch2.eth[0].macLayer.queue.transmissionGate[0] guardBandState:vector ETV
attr enum ON,OFF
attr interpolationmode sample-hold
attr moduledisplaypath Topology.switch2.eth[0].macLayer.queue.besteffort
attr recordingmode vector
attr source guardBandStateChanged
attr title "guard band state"
attr type enum
vector 117 Topology.switch2.eth[0].macLayer.queue.transmissionGate[1] gateState:vector ETV
attr enum CLOSED,OPEN
attr interpolationmode sample-hold
attr moduledisplaypath Topology.switch2.eth[0].macLayer.queue.video
attr recordingmode vector
attr source gateStateChanged
attr title "gate state"
attr type enum
vector 118 Topology.switch2.eth[0].macLayer.queue.transmissionGate[1] guardBandState:vector ETV
attr enum ON,OFF
attr interpolationmode sample-hold
attr moduledisplaypath Topology.switch2.eth[0].macLayer.queue.video
attr recordingmode vector
attr source guardBandStateChanged
attr title "guard band state"
attr type enum
vector 119 Topology.switch2.eth[1].macLayer.queue.transmissionGate[0] gateState:vector ETV
attr enum CLOSED,OPEN
attr interpolationmode sample-hold
attr moduledisplaypath Topology.switch2.eth[1].macLayer.queue.besteffort
attr recordingmode vector
attr source gateStateChanged
attr title "gate state"
attr type enum
vector 120 Topology.switch2.eth[1].macLayer.queue.transmissionGate[0] guardBandState:vector ETV
attr enum ON,OFF
attr interpolationmode sample-hold
attr moduledisplaypath Topology.switch2.eth[1].macLayer.queue.besteffort
attr recordingmode vector
attr source guardBandStateChanged
attr title "guard band state"
attr type enum
vector 121 Topology.switch2.eth[1].macLayer.queue.transmissionGate[1] gateState:vector ETV
attr enum CLOSED,OPEN
attr interpolationmode sample-hold
attr moduledisplaypath Topology.switch2.eth[1].macLayer.queue.video
attr recordingmode vector
attr source gateStateChanged
attr title "gate state"
attr type enum
vector 122 Topology.switch2.eth[1].macLayer.queue.transmissionGate[1] guardBandState:vector ETV
attr enum ON,OFF
attr interpolationmode sample-hold
attr moduledisplaypath Topology.switch2.eth[1].macLayer.queue.video
attr recordingmode vector
attr source guardBandStateChanged
attr title "guard band state"
attr type enum
vector 123 Topology.switch2.eth[2].macLayer.queue.transmissionGate[0] gateState:vector ETV
attr enum CLOSED,OPEN
attr interpolationmode sample-hold
attr moduledisplaypath Topology.switch2.eth[2].macLayer.queue.besteffort
attr recordingmode vector
attr source gateStateChanged
attr title "gate state"
attr type enum
vector 124 Topology.switch2.eth[2].macLayer.queue.transmissionGate[0] guardBandState:vector ETV
attr enum ON,OFF
attr interpolationmode sample-hold
attr moduledisplaypath Topology.switch2.eth[2].macLayer.queue.besteffort
attr recordingmode vector
attr source guardBandStateChanged
attr title "guard band state"
attr type enum
vector 125 Topology.switch2.eth[2].macLayer.queue.transmissionGate[1] gateState:vector ETV
attr enum CLOSED,OPEN
attr interpolationmode sample-hold
attr moduledisplaypath Topology.switch2.eth[2].macLayer.queue.video
attr recordingmode vector
attr source gateStateChanged
attr title "gate state"
attr type enum
vector 126 Topology.switch2.eth[2].macLayer.queue.transmissionGate[1] guardBandState:vector ETV
attr enum ON,OFF
attr interpolationmode sample-hold
attr moduledisplaypath Topology.switch2.eth[2].macLayer.queue.video
attr recordingmode vector
attr source guardBandStateChanged
attr title "guard band state"
attr type enum
vector 127 Topology.switch2.eth[3].macLayer.queue.transmissionGate[0] gateState:vector ETV
attr enum CLOSED,OPEN
attr interpolationmode sample-hold
attr moduledisplaypath Topology.switch2.eth[3].macLayer.queue.besteffort
attr recordingmode vector
attr source gateStateChanged
attr title "gate state"
attr type enum
vector 128 Topology.switch2.eth[3].macLayer.queue.transmissionGate[0] guardBandState:vector ETV
attr enum ON,OFF
attr interpolationmode sample-hold
attr moduledisplaypath Topology.switch2.eth[3].macLayer.queue.besteffort
attr recordingmode vector
attr source guardBandStateChanged
attr title "guard band state"
attr type enum
vector 129 Topology.switch2.eth[3].macLayer.queue.transmissionGate[1] gateState:vector ETV
attr enum CLOSED,OPEN
attr interpolationmode sample-hold
attr moduledisplaypath Topology.switch2.eth[3].macLayer.queue.video
attr recordingmode vector
attr source gateStateChanged
attr title "gate state"
attr type enum
vector 130 Topology.switch2.eth[3].macLayer.queue.transmissionGate[1] guardBandState:vector ETV
attr enum ON,OFF
attr interpolationmode sample-hold
attr moduledisplaypath Topology.switch2.eth[3].macLayer.queue.video
attr recordingmode vector
attr source guardBandStateChanged
attr title "guard band state"
attr type enum
vector 131 Topology.switch2.eth[4].macLayer.queue.transmissionGate[0] gateState:vector ETV
attr enum CLOSED,OPEN
attr interpolationmode sample-hold
attr moduledisplaypath Topology.switch2.eth[4].macLayer.queue.besteffort
attr recordingmode vector
attr source gateStateChanged
attr title "gate state"
attr type enum
vector 132 Topology.switch2.eth[4].macLayer.queue.transmissionGate[0] guardBandState:vector ETV
attr enum ON,OFF
attr interpolationmode sample-hold
attr moduledisplaypath Topology.switch2.eth[4].macLayer.queue.besteffort
attr recordingmode vector
attr source guardBandStateChanged
attr title "guard band state"
attr type enum
vector 133 Topology.switch2.eth[4].macLayer.queue.transmissionGate[1] gateState:vector ETV
attr enum CLOSED,OPEN
attr interpolationmode sample-hold
attr moduledisplaypath Topology.switch2.eth[4].macLayer.queue.video
attr recordingmode vector
attr source gateStateChanged
attr title "gate state"
attr type enum
vector 134 Topology.switch2.eth[4].macLayer.queue.transmissionGate[1] guardBandState:vector ETV
attr enum ON,OFF
attr interpolationmode sample-hold
attr moduledisplaypath Topology.switch2.eth[4].macLayer.queue.video
attr recordingmode vector
attr source guardBandStateChanged
attr title "guard band state"
attr type enum
vector 135 Topology.switch3.eth[0].macLayer.queue.transmissionGate[0] gateState:vector ETV
attr enum CLOSED,OPEN
attr interpolationmode sample-hold
attr moduledisplaypath Topology.switch3.eth[0].macLayer.queue.besteffort
attr recordingmode vector
attr source gateStateChanged
attr title "gate state"
attr type enum
vector 136 Topology.switch3.eth[0].macLayer.queue.transmissionGate[0] guardBandState:vector ETV
attr enum ON,OFF
attr interpolationmode sample-hold
attr moduledisplaypath Topology.switch3.eth[0].macLayer.queue.besteffort
attr recordingmode vector
attr source guardBandStateChanged
attr title "guard band state"
attr type enum
vector 137 Topology.switch3.eth[0].macLayer.queue.transmissionGate[1] gateState:vector ETV
attr enum CLOSED,OPEN
attr interpolationmode sample-hold
attr moduledisplaypath Topology.switch3.eth[0].macLayer.queue.video
attr recordingmode vector
attr source gateStateChanged
attr title "gate state"
attr type enum
vector 138 Topology.switch3.eth[0].macLayer.queue.transmissionGate[1] guardBandState:vector ETV
attr enum ON,OFF
attr interpolationmode sample-hold
attr moduledisplaypath Topology.switch3.eth[0].macLayer.queue.video
attr recordingmode vector
attr source guardBandStateChanged
attr title "guard band state"
attr type enum
vector 139 Topology.switch3.eth[1].macLayer.queue.transmissionGate[0] gateState:vector ETV
attr enum CLOSED,OPEN
attr interpolationmode sample-hold
attr moduledisplaypath Topology.switch3.eth[1].macLayer.queue.besteffort
attr recordingmode vector
attr source gateStateChanged
attr title "gate state"
attr type enum
vector 140 Topology.switch3.eth[1].macLayer.queue.transmissionGate[0] guardBandState:vector ETV
attr enum ON,OFF
attr interpolationmode sample-hold
attr moduledisplaypath Topology.switch3.eth[1].macLayer.queue.besteffort
attr recordingmode vector
attr source guardBandStateChanged
attr title "guard band state"
attr type enum
vector 141 Topology.switch3.eth[1].macLayer.queue.transmissionGate[1] gateState:vector ETV
attr enum CLOSED,OPEN
attr interpolationmode sample-hold
attr moduledisplaypath Topology.switch3.eth[1].macLayer.queue.video
attr recordingmode vector
attr source gateStateChanged
attr title "gate state"
attr type enum
vector 142 Topology.switch3.eth[1].macLayer.queue.transmissionGate[1] guardBandState:vector ETV
attr enum ON,OFF
attr interpolationmode sample-hold
attr moduledisplaypath Topology.switch3.eth[1].macLayer.queue.video
attr recordingmode vector
attr source guardBandStateChanged
attr title "guard band state"
attr type enum
vector 143 Topology.switch3.eth[2].macLayer.queue.transmissionGate[0] gateState:vector ETV
attr enum CLOSED,OPEN
attr interpolationmode sample-hold
attr moduledisplaypath Topology.switch3.eth[2].macLayer.queue.besteffort
attr recordingmode vector
attr source gateStateChanged
attr title "gate state"
attr type enum
vector 144 Topology.switch3.eth[2].macLayer.queue.transmissionGate[0] guardBandState:vector ETV
attr enum ON,OFF
attr interpolationmode sample-hold
attr moduledisplaypath Topology.switch3.eth[2].macLayer.queue.besteffort
attr recordingmode vector
attr source guardBandStateChanged
attr title "guard band state"
attr type enum
vector 145 Topology.switch3.eth[2].macLayer.queue.transmissionGate[1] gateState:vector ETV
attr enum CLOSED,OPEN
attr interpolationmode sample-hold
attr moduledisplaypath Topology.switch3.eth[2].macLayer.queue.video
attr recordingmode vector
attr source gateStateChanged
attr title "gate state"
attr type enum
vector 146 Topology.switch3.eth[2].macLayer.queue.transmissionGate[1] guardBandState:vector ETV
attr enum ON,OFF
attr interpolationmode sample-hold
attr moduledisplaypath Topology.switch3.eth[2].macLayer.queue.video
attr recordingmode vector
attr source guardBandStateChanged
attr title "guard band state"
attr type enum
vector 147 Topology.switch3.eth[3].macLayer.queue.transmissionGate[0] gateState:vector ETV
attr enum CLOSED,OPEN
attr interpolationmode sample-hold
attr moduledisplaypath Topology.switch3.eth[3].macLayer.queue.besteffort
attr recordingmode vector
attr source gateStateChanged
attr title "gate state"
attr type enum
vector 148 Topology.switch3.eth[3].macLayer.queue.transmissionGate[0] guardBandState:vector ETV
attr enum ON,OFF
attr interpolationmode sample-hold
attr moduledisplaypath Topology.switch3.eth[3].macLayer.queue.besteffort
attr recordingmode vector
attr source guardBandStateChanged
attr title "guard band state"
attr type enum
vector 149 Topology.switch3.eth[3].macLayer.queue.transmissionGate[1] gateState:vector ETV
attr enum CLOSED,OPEN
attr interpolationmode sample-hold
attr moduledisplaypath Topology.switch3.eth[3].macLayer.queue.video
attr recordingmode vector
attr source gateStateChanged
attr title "gate state"
attr type enum
vector 150 Topology.switch3.eth[3].macLayer.queue.transmissionGate[1] guardBandState:vector ETV
attr enum ON,OFF
attr interpolationmode sample-hold
attr moduledisplaypath Topology.switch3.eth[3].macLayer.queue.video
attr recordingmode vector
attr source guardBandStateChanged
attr title "guard band state"
attr type enum
vector 151 Topology.switch3.eth[4].macLayer.queue.transmissionGate[0] gateState:vector ETV
attr enum CLOSED,OPEN
attr interpolationmode sample-hold
attr moduledisplaypath Topology.switch3.eth[4].macLayer.queue.besteffort
attr recordingmode vector
attr source gateStateChanged
attr title "gate state"
attr type enum
vector 152 Topology.switch3.eth[4].macLayer.queue.transmissionGate[0] guardBandState:vector ETV
attr enum ON,OFF
attr interpolationmode sample-hold
attr moduledisplaypath Topology.switch3.eth[4].macLayer.queue.besteffort
attr recordingmode vector
attr source guardBandStateChanged
attr title "guard band state"
attr type enum
vector 153 Topology.switch3.eth[4].macLayer.queue.transmissionGate[1] gateState:vector ETV
attr enum CLOSED,OPEN
attr interpolationmode sample-hold
attr moduledisplaypath Topology.switch3.eth[4].macLayer.queue.video
attr recordingmode vector
attr source gateStateChanged
attr title "gate state"
attr type enum
vector 154 Topology.switch3.eth[4].macLayer.queue.transmissionGate[1] guardBandState:vector ETV
attr enum ON,OFF
attr interpolationmode sample-hold
attr moduledisplaypath Topology.switch3.eth[4].macLayer.queue.video
attr recordingmode vector
attr source guardBandStateChanged
attr title "guard band state"
attr type enum
vector 155 Topology.switch4.eth[0].macLayer.queue.transmissionGate[0] gateState:vector ETV
attr enum CLOSED,OPEN
attr interpolationmode sample-hold
attr moduledisplaypath Topology.switch4.eth[0].macLayer.queue.besteffort
attr recordingmode vector
attr source gateStateChanged
attr title "gate state"
attr type enum
vector 156 Topology.switch4.eth[0].macLayer.queue.transmissionGate[0] guardBandState:vector ETV
attr enum ON,OFF
attr interpolationmode sample-hold
attr moduledisplaypath Topology.switch4.eth[0].macLayer.queue.besteffort
attr recordingmode vector
attr source guardBandStateChanged
attr title "guard band state"
attr type enum
vector 157 Topology.switch4.eth[0].macLayer.queue.transmissionGate[1] gateState:vector ETV
attr enum CLOSED,OPEN
attr interpolationmode sample-hold
attr moduledisplaypath Topology.switch4.eth[0].macLayer.queue.video
attr recordingmode vector
attr source gateStateChanged
attr title "gate state"
attr type enum
vector 158 Topology.switch4.eth[0].macLayer.queue.transmissionGate[1] guardBandState:vector ETV
attr enum ON,OFF
attr interpolationmode sample-hold
attr moduledisplaypath Topology.switch4.eth[0].macLayer.queue.video
attr recordingmode vector
attr source guardBandStateChanged
attr title "guard band state"
attr type enum
vector 159 Topology.switch4.eth[1].macLayer.queue.transmissionGate[0] gateState:vector ETV
attr enum CLOSED,OPEN
attr interpolationmode sample-hold
attr moduledisplaypath Topology.switch4.eth[1].macLayer.queue.besteffort
attr recordingmode vector
attr source gateStateChanged
attr title "gate state"
attr type enum
vector 160 Topology.switch4.eth[1].macLayer.queue.transmissionGate[0] guardBandState:vector ETV
attr enum ON,OFF
attr interpolationmode sample-hold
attr moduledisplaypath Topology.switch4.eth[1].macLayer.queue.besteffort
attr recordingmode vector
attr source guardBandStateChanged
attr title "guard band state"
attr type enum
vector 161 Topology.switch4.eth[1].macLayer.queue.transmissionGate[1] gateState:vector ETV
attr enum CLOSED,OPEN
attr interpolationmode sample-hold
attr moduledisplaypath Topology.switch4.eth[1].macLayer.queue.video
attr recordingmode vector
attr source gateStateChanged
attr title "gate state"
attr type enum
vector 162 Topology.switch4.eth[1].macLayer.queue.transmissionGate[1] guardBandState:vector ETV
attr enum ON,OFF
attr interpolationmode sample-hold
attr moduledisplaypath Topology.switch4.eth[1].macLayer.queue.video
attr recordingmode vector
attr source guardBandStateChanged
attr title "guard band state"
attr type enum
vector 163 Topology.switch4.eth[2].macLayer.queue.transmissionGate[0] gateState:vector ETV
attr enum CLOSED,OPEN
attr interpolationmode sample-hold
attr moduledisplaypath Topology.switch4.eth[2].macLayer.queue.besteffort
attr recordingmode vector
attr source gateStateChanged
attr title "gate state"
attr type enum
vector 164 Topology.switch4.eth[2].macLayer.queue.transmissionGate[0] guardBandState:vector ETV
attr enum ON,OFF
attr interpolationmode sample-hold
attr moduledisplaypath Topology.switch4.eth[2].macLayer.queue.besteffort
attr recordingmode vector
attr source guardBandStateChanged
attr title "guard band state"
attr type enum
vector 165 Topology.switch4.eth[2].macLayer.queue.transmissionGate[1] gateState:vector ETV
attr enum CLOSED,OPEN
attr interpolationmode sample-hold
attr moduledisplaypath Topology.switch4.eth[2].macLayer.queue.video
attr recordingmode vector
attr source gateStateChanged
attr title "gate state"
attr type enum
vector 166 Topology.switch4.eth[2].macLayer.queue.transmissionGate[1] guardBandState:vector ETV
attr enum ON,OFF
attr interpolationmode sample-hold
attr moduledisplaypath Topology.switch4.eth[2].macLayer.queue.video
attr recordingmode vector
attr source guardBandStateChanged
attr title "guard band state"
attr type enum
vector 167 Topology.switch4.eth[3].macLayer.queue.transmissionGate[0] gateState:vector ETV
attr enum CLOSED,OPEN
attr interpolationmode sample-hold
attr moduledisplaypath Topology.switch4.eth[3].macLayer.queue.besteffort
attr recordingmode vector
attr source gateStateChanged
attr title "gate state"
attr type enum
vector 168 Topology.switch4.eth[3].macLayer.queue.transmissionGate[0] guardBandState:vector ETV
attr enum ON,OFF
attr interpolationmode sample-hold
attr moduledisplaypath Topology.switch4.eth[3].macLayer.queue.besteffort
attr recordingmode vector
attr source guardBandStateChanged
attr title "guard band state"
attr type enum
vector 169 Topology.switch4.eth[3].macLayer.queue.transmissionGate[1] gateState:vector ETV
attr enum CLOSED,OPEN
attr interpolationmode sample-hold
attr moduledisplaypath Topology.switch4.eth[3].macLayer.queue.video
attr recordingmode vector
attr source gateStateChanged
attr title "gate state"
attr type enum
vector 170 Topology.switch4.eth[3].macLayer.queue.transmissionGate[1] guardBandState:vector ETV
attr enum ON,OFF
attr interpolationmode sample-hold
attr moduledisplaypath Topology.switch4.eth[3].macLayer.queue.video
attr recordingmode vector
attr source guardBandStateChanged
attr title "guard band state"
attr type enum
vector 171 Topology.switch5.eth[0].macLayer.queue.transmissionGate[0] gateState:vector ETV
attr enum CLOSED,OPEN
attr interpolationmode sample-hold
attr moduledisplaypath Topology.switch5.eth[0].macLayer.queue.besteffort
attr recordingmode vector
attr source gateStateChanged
attr title "gate state"
attr type enum
vector 172 Topology.switch5.eth[0].macLayer.queue.transmissionGate[0] guardBandState:vector ETV
attr enum ON,OFF
attr interpolationmode sample-hold
attr moduledisplaypath Topology.switch5.eth[0].macLayer.queue.besteffort
attr recordingmode vector
attr source guardBandStateChanged
attr title "guard band state"
attr type enum
vector 173 Topology.switch5.eth[0].macLayer.queue.transmissionGate[1] gateState:vector ETV
attr enum CLOSED,OPEN
attr interpolationmode sample-hold
attr moduledisplaypath Topology.switch5.eth[0].macLayer.queue.video
attr recordingmode vector
attr source gateStateChanged
attr title "gate state"
attr type enum
vector 174 Topology.switch5.eth[0].macLayer.queue.transmissionGate[1] guardBandState:vector ETV
attr enum ON,OFF
attr interpolationmode sample-hold
attr moduledisplaypath Topology.switch5.eth[0].macLayer.queue.video
attr recordingmode vector
attr source guardBandStateChanged
attr title "guard band state"
attr type enum
vector 175 Topology.switch5.eth[1].macLayer.queue.transmissionGate[0] gateState:vector ETV
attr enum CLOSED,OPEN
attr interpolationmode sample-hold
attr moduledisplaypath Topology.switch5.eth[1].macLayer.queue.besteffort
attr recordingmode vector
attr source gateStateChanged
attr title "gate state"
attr type enum
vector 176 Topology.switch5.eth[1].macLayer.queue.transmissionGate[0] guardBandState:vector ETV
attr enum ON,OFF
attr interpolationmode sample-hold
attr moduledisplaypath Topology.switch5.eth[1].macLayer.queue.besteffort
attr recordingmode vector
attr source guardBandStateChanged
attr title "guard band state"
attr type enum
vector 177 Topology.switch5.eth[1].macLayer.queue.transmissionGate[1] gateState:vector ETV
attr enum CLOSED,OPEN
attr interpolationmode sample-hold
attr moduledisplaypath Topology.switch5.eth[1].macLayer.queue.video
attr recordingmode vector
attr source gateStateChanged
attr title "gate state"
attr type enum
vector 178 Topology.switch5.eth[1].macLayer.queue.transmissionGate[1] guardBandState:vector ETV
attr enum ON,OFF
attr interpolationmode sample-hold
attr moduledisplaypath Topology.switch5.eth[1].macLayer.queue.video
attr recordingmode vector
attr source guardBandStateChanged
attr title "guard band state"
attr type enum
vector 179 Topology.switch5.eth[2].macLayer.queue.transmissionGate[0] gateState:vector ETV
attr enum CLOSED,OPEN
attr interpolationmode sample-hold
attr moduledisplaypath Topology.switch5.eth[2].macLayer.queue.besteffort
attr recordingmode vector
attr source gateStateChanged
attr title "gate state"
attr type enum
vector 180 Topology.switch5.eth[2].macLayer.queue.transmissionGate[0] guardBandState:vector ETV
attr enum ON,OFF
attr interpolationmode sample-hold
attr moduledisplaypath Topology.switch5.eth[2].macLayer.queue.besteffort
attr recordingmode vector
attr source guardBandStateChanged
attr title "guard band state"
attr type enum
vector 181 Topology.switch5.eth[2].macLayer.queue.transmissionGate[1] gateState:vector ETV
attr enum CLOSED,OPEN
attr interpolationmode sample-hold
attr moduledisplaypath Topology.switch5.eth[2].macLayer.queue.video
attr recordingmode vector
attr source gateStateChanged
attr title "gate state"
attr type enum
vector 182 Topology.switch5.eth[2].macLayer.queue.transmissionGate[1] guardBandState:vector ETV
attr enum ON,OFF
attr interpolationmode sample-hold
attr moduledisplaypath Topology.switch5.eth[2].macLayer.queue.video
attr recordingmode vector
attr source guardBandStateChanged
attr title "guard band state"
attr type enum
vector 183 Topology.switch6.eth[0].macLayer.queue.transmissionGate[0] gateState:vector ETV
attr enum CLOSED,OPEN
attr interpolationmode sample-hold
attr moduledisplaypath Topology.switch6.eth[0].macLayer.queue.besteffort
attr recordingmode vector
attr source gateStateChanged
attr title "gate state"
attr type enum
vector 184 Topology.switch6.eth[0].macLayer.queue.transmissionGate[0] guardBandState:vector ETV
attr enum ON,OFF
attr interpolationmode sample-hold
attr moduledisplaypath Topology.switch6.eth[0].macLayer.queue.besteffort
attr recordingmode vector
attr source guardBandStateChanged
attr title "guard band state"
attr type enum
vector 185 Topology.switch6.eth[0].macLayer.queue.transmissionGate[1] gateState:vector ETV
attr enum CLOSED,OPEN
attr interpolationmode sample-hold
attr moduledisplaypath Topology.switch6.eth[0].macLayer.queue.video
attr recordingmode vector
attr source gateStateChanged
attr title "gate state"
attr type enum
vector 186 Topology.switch6.eth[0].macLayer.queue.transmissionGate[1] guardBandState:vector ETV
attr enum ON,OFF
attr interpolationmode sample-hold
attr moduledisplaypath Topology.switch6.eth[0].macLayer.queue.video
attr recordingmode vector
attr source guardBandStateChanged
attr title "guard band state"
attr type enum
vector 187 Topology.switch6.eth[1].macLayer.queue.transmissionGate[0] gateState:vector ETV
attr enum CLOSED,OPEN
attr interpolationmode sample-hold
attr moduledisplaypath Topology.switch6.eth[1].macLayer.queue.besteffort
attr recordingmode vector
attr source gateStateChanged
attr title "gate state"
attr type enum
vector 188 Topology.switch6.eth[1].macLayer.queue.transmissionGate[0] guardBandState:vector ETV
attr enum ON,OFF
attr interpolationmode sample-hold
attr moduledisplaypath Topology.switch6.eth[1].macLayer.queue.besteffort
attr recordingmode vector
attr source guardBandStateChanged
attr title "guard band state"
attr type enum
vector 189 Topology.switch6.eth[1].macLayer.queue.transmissionGate[1] gateState:vector ETV
attr enum CLOSED,OPEN
attr interpolationmode sample-hold
attr moduledisplaypath Topology.switch6.eth[1].macLayer.queue.video
attr recordingmode vector
attr source gateStateChanged
attr title "gate state"
attr type enum
vector 190 Topology.switch6.eth[1].macLayer.queue.transmissionGate[1] guardBandState:vector ETV
attr enum ON,OFF
attr interpolationmode sample-hold
attr moduledisplaypath Topology.switch6.eth[1].macLayer.queue.video
attr recordingmode vector
attr source guardBandStateChanged
attr title "guard band state"
attr type enum
vector 191 Topology.switch6.eth[2].macLayer.queue.transmissionGate[0] gateState:vector ETV
attr enum CLOSED,OPEN
attr interpolationmode sample-hold
attr moduledisplaypath Topology.switch6.eth[2].macLayer.queue.besteffort
attr recordingmode vector
attr source gateStateChanged
attr title "gate state"
attr type enum
vector 192 Topology.switch6.eth[2].macLayer.queue.transmissionGate[0] guardBandState:vector ETV
attr enum ON,OFF
attr interpolationmode sample-hold
attr moduledisplaypath Topology.switch6.eth[2].macLayer.queue.besteffort
attr recordingmode vector
attr source guardBandStateChanged
attr title "guard band state"
attr type enum
vector 193 Topology.switch6.eth[2].macLayer.queue.transmissionGate[1] gateState:vector ETV
attr enum CLOSED,OPEN
attr interpolationmode sample-hold
attr moduledisplaypath Topology.switch6.eth[2].macLayer.queue.video
attr recordingmode vector
attr source gateStateChanged
attr title "gate state"
attr type enum
vector 194 Topology.switch6.eth[2].macLayer.queue.transmissionGate[1] guardBandState:vector ETV
attr enum ON,OFF
attr interpolationmode sample-hold
attr moduledisplaypath Topology.switch6.eth[2].macLayer.queue.video
attr recordingmode vector
attr source guardBandStateChanged
attr title "guard band state"
attr type enum
vector 195 Topology.switch7.eth[0].macLayer.queue.transmissionGate[0] gateState:vector ETV
attr enum CLOSED,OPEN
attr interpolationmode sample-hold
attr moduledisplaypath Topology.switch7.eth[0].macLayer.queue.besteffort
attr recordingmode vector
attr source gateStateChanged
attr title "gate state"
attr type enum
vector 196 Topology.switch7.eth[0].macLayer.queue.transmissionGate[0] guardBandState:vector ETV
attr enum ON,OFF
attr interpolationmode sample-hold
attr moduledisplaypath Topology.switch7.eth[0].macLayer.queue.besteffort
attr recordingmode vector
attr source guardBandStateChanged
attr title "guard band state"
attr type enum
vector 197 Topology.switch7.eth[0].macLayer.queue.transmissionGate[1] gateState:vector ETV
attr enum CLOSED,OPEN
attr interpolationmode sample-hold
attr moduledisplaypath Topology.switch7.eth[0].macLayer.queue.video
attr recordingmode vector
attr source gateStateChanged
attr title "gate state"
attr type enum
vector 198 Topology.switch7.eth[0].macLayer.queue.transmissionGate[1] guardBandState:vector ETV
attr enum ON,OFF
attr interpolationmode sample-hold
attr moduledisplaypath Topology.switch7.eth[0].macLayer.queue.video
attr recordingmode vector
attr source guardBandStateChanged
attr title "guard band state"
attr type enum
vector 199 Topology.switch7.eth[1].macLayer.queue.transmissionGate[0] gateState:vector ETV
attr enum CLOSED,OPEN
attr interpolationmode sample-hold
attr moduledisplaypath Topology.switch7.eth[1].macLayer.queue.besteffort
attr recordingmode vector
attr source gateStateChanged
attr title "gate state"
attr type enum
vector 200 Topology.switch7.eth[1].macLayer.queue.transmissionGate[0] guardBandState:vector ETV
attr enum ON,OFF
attr interpolationmode sample-hold
attr moduledisplaypath Topology.switch7.eth[1].macLayer.queue.besteffort
attr recordingmode vector
attr source guardBandStateChanged
attr title "guard band state"
attr type enum
vector 201 Topology.switch7.eth[1].macLayer.queue.transmissionGate[1] gateState:vector ETV
attr enum CLOSED,OPEN
attr interpolationmode sample-hold
attr moduledisplaypath Topology.switch7.eth[1].macLayer.queue.video
attr recordingmode vector
attr source gateStateChanged
attr title "gate state"
attr type enum
vector 202 Topology.switch7.eth[1].macLayer.queue.transmissionGate[1] guardBandState:vector ETV
attr enum ON,OFF
attr interpolationmode sample-hold
attr moduledisplaypath Topology.switch7.eth[1].macLayer.queue.video
attr recordingmode vector
attr source guardBandStateChanged
attr title "guard band state"
attr type enum
vector 203 Topology.switch7.eth[2].macLayer.queue.transmissionGate[0] gateState:vector ETV
attr enum CLOSED,OPEN
attr interpolationmode sample-hold
attr moduledisplaypath Topology.switch7.eth[2].macLayer.queue.besteffort
attr recordingmode vector
attr source gateStateChanged
attr title "gate state"
attr type enum
vector 204 Topology.switch7.eth[2].macLayer.queue.transmissionGate[0] guardBandState:vector ETV
attr enum ON,OFF
attr interpolationmode sample-hold
attr moduledisplaypath Topology.switch7.eth[2].macLayer.queue.besteffort
attr recordingmode vector
attr source guardBandStateChanged
attr title "guard band state"
attr type enum
vector 205 Topology.switch7.eth[2].macLayer.queue.transmissionGate[1] gateState:vector ETV
attr enum CLOSED,OPEN
attr interpolationmode sample-hold
attr moduledisplaypath Topology.switch7.eth[2].macLayer.queue.video
attr recordingmode vector
attr source gateStateChanged
attr title "gate state"
attr type enum
vector 206 Topology.switch7.eth[2].macLayer.queue.transmissionGate[1] guardBandState:vector ETV
attr enum ON,OFF
attr interpolationmode sample-hold
attr moduledisplaypath Topology.switch7.eth[2].macLayer.queue.video
attr recordingmode vector
attr source guardBandStateChanged
attr title "guard band state"
attr type enum
0	64463 16 0 0 0 0 2 0 0 0 0
1	64479 16 0 0 0 0 2 0 0 0 0
2	64495 8 0 0 0 0 1 0 0 0 0
3	64503 8 0 0 0 0 1 0 0 0 0
4	64511 8 0 0 0 0 1 0 0 0 0
5	64519 16 0 0 0 0 2 0 0 0 0
6	64535 16 0 0 0 0 2 0 0 0 0
7	64551 16 0 0 0 0 2 0 0 0 0
8	64567 16 0 0 0 0 2 0 0 0 0
9	64583 16 0 0 0 0 2 0 0 0 0
10	64599 18 0 0 0 0 2 0 0 0 0
11	64617 18 0 0 0 0 2 0 0 0 0
12	64635 18 0 0 0 0 2 0 0 0 0
13	64653 18 0 0 0 0 2 0 0 0 0
14	64671 18 0 0 0 0 2 0 0 0 0
15	64689 18 0 0 0 0 2 0 0 0 0
16	64707 18 0 0 0 0 2 0 0 0 0
17	64725 18 0 0 0 0 2 0 0 0 0
18	64743 18 0 0 0 0 2 0 0 0 0
19	64761 18 0 0 0 0 2 0 0 0 0
20	64779 18 0 0 0 0 2 0 0 0 0
21	64797 18 0 0 0 0 2 0 0 0 0
22	64815 18 0 0 0 0 2 0 0 0 0
23	64833 18 0 0 0 0 2 0 0 0 0
24	64851 18 0 0 0 0 2 0 0 0 0
25	64869 18 0 0 0 0 2 0 0 0 0
26	64887 18 0 0 0 0 2 0 0 0 0
27	64905 18 0 0 0 0 2 0 0 0 0
28	64923 18 0 0 0 0 2 0 0 0 0
29	64941 18 0 0 0 0 2 0 0 0 0
30	64959 18 0 0 0 0 2 0 0 0 0
31	64977 18 0 0 0 0 2 0 0 0 0
32	64995 18 0 0 0 0 2 0 0 0 0
33	65013 18 0 0 0 0 2 0 0 0 0
34	65031 18 0 0 0 0 2 0 0 0 0
35	65049 18 0 0 0 0 2 0 0 0 0
36	65067 18 0 0 0 0 2 0 0 0 0
37	65085 18 0 0 0 0 2 0 0 0 0
38	65103 18 0 0 0 0 2 0 0 0 0
39	65121 18 0 0 0 0 2 0 0 0 0
40	65139 18 0 0 0 0 2 0 0 0 0
41	65157 18 0 0 0 0 2 0 0 0 0
42	65175 18 0 0 0 0 2 0 0 0 0
43	65193 18 0 0 0 0 2 0 0 0 0
44	65211 18 0 0 0 0 2 0 0 0 0
45	65229 18 0 0 0 0 2 0 0 0 0
46	65247 18 0 0 0 0 2 0 0 0 0
47	65265 18 0 0 0 0 2 0 0 0 0
48	65283 18 0 0 0 0 2 0 0 0 0
49	65301 18 0 0 0 0 2 0 0 0 0
50	65319 18 0 0 0 0 2 0 0 0 0
51	65337 18 0 0 0 0 2 0 0 0 0
52	65355 18 0 0 0 0 2 0 0 0 0
53	65373 18 0 0 0 0 2 0 0 0 0
54	65391 18 0 0 0 0 2 0 0 0 0
55	65409 18 0 0 0 0 2 0 0 0 0
56	65427 18 0 0 0 0 2 0 0 0 0
57	65445 18 0 0 0 0 2 0 0 0 0
58	65463 18 0 0 0 0 2 0 0 0 0
59	65481 18 0 0 0 0 2 0 0 0 0
60	65499 18 0 0 0 0 2 0 0 0 0
61	65517 9 0 0 0 0 1 0 0 0 0
62	65526 9 0 0 0 0 1 0 0 0 0
63	65535 9 0 0 0 0 1 0 0 0 0
64	65544 18 0 0 0 0 2 0 0 0 0
65	65562 18 0 0 0 0 2 0 0 0 0
66	65580 9 0 0 0 0 1 0 0 0 0
67	65589 9 0 0 0 0 1 0 0 0 0
68	65598 9 0 0 0 0 1 0 0 0 0
69	65607 18 0 0 0 0 2 0 0 0 0
70	65625 18 0 0 0 0 2 0 0 0 0
71	65643 9 0 0 0 0 1 0 0 0 0
72	65652 9 0 0 0 0 1 0 0 0 0
73	65661 9 0 0 0 0 1 0 0 0 0
74	65670 18 0 0 0 0 2 0 0 0 0
75	65688 18 0 0 0 0 2 0 0 0 0
76	65706 9 0 0 0 0 1 0 0 0 0
77	65715 9 0 0 0 0 1 0 0 0 0
78	65724 9 0 0 0 0 1 0 0 0 0
79	65733 18 0 0 0 0 2 0 0 0 0
80	65751 18 0 0 0 0 2 0 0 0 0
81	65769 9 0 0 0 0 1 0 0 0 0
82	65778 9 0 0 0 0 1 0 0 0 0
83	65787 9 0 0 0 0 1 0 0 0 0
84	65796 18 0 0 0 0 2 0 0 0 0
85	65814 18 0 0 0 0 2 0 0 0 0
86	65832 9 0 0 0 0 1 0 0 0 0
87	65841 9 0 0 0 0 1 0 0 0 0
88	65850 9 0 0 0 0 1 0 0 0 0
89	65859 18 0 0 0 0 2 0 0 0 0
90	65877 18 0 0 0 0 2 0 0 0 0
91	65895 9 0 0 0 0 1 0 0 0 0
92	65904 9 0 0 0 0 1 0 0 0 0
93	65913 9 0 0 0 0 1 0 0 0 0
94	65922 18 0 0 0 0 2 0 0 0 0
95	65940 18 0 0 0 0 2 0 0 0 0
96	65958 9 0 0 0 0 1 0 0 0 0
97	65967 9 0 0 0 0 1 0 0 0 0
98	65976 9 0 0 0 0 1 0 0 0 0
99	65985 9 0 0 0 0 1 1 1 1 1
100	65994 10 0 0 0 0 1 0 0 0 0
101	66004 10 0 0 0 0 1 1 1 1 1
102	66014 10 0 0 0 0 1 0 0 0 0
103	66024 10 0 0 0 0 1 1 1 1 1
104	66034 10 0 0 0 0 1 0 0 0 0
105	66044 10 0 0 0 0 1 1 1 1 1
106	66054 10 0 0 0 0 1 0 0 0 0
107	66064 10 0 0 0 0 1 1 1 1 1
108	66074 10 0 0 0 0 1 0 0 0 0
109	66084 10 0 0 0 0 1 1 1 1 1
110	66094 10 0 0 0 0 1 0 0 0 0
111	66104 10 0 0 0 0 1 1 1 1 1
112	66114 10 0 0 0 0 1 0 0 0 0
113	66124 10 0 0 0 0 1 1 1 1 1
114	66134 10 0 0 0 0 1 0 0 0 0
115	66144 10 0 0 0 0 1 1 1 1 1
116	66154 10 0 0 0 0 1 0 0 0 0
117	66164 10 0 0 0 0 1 1 1 1 1
118	66174 10 0 0 0 0 1 0 0 0 0
119	66184 10 0 0 0 0 1 1 1 1 1
120	66194 10 0 0 0 0 1 0 0 0 0
121	66204 10 0 0 0 0 1 1 1 1 1
122	66214 10 0 0 0 0 1 0 0 0 0
123	66224 10 0 0 0 0 1 1 1 1 1
124	66234 10 0 0 0 0 1 0 0 0 0
125	66244 10 0 0 0 0 1 1 1 1 1
126	66254 10 0 0 0 0 1 0 0 0 0
127	66264 10 0 0 0 0 1 1 1 1 1
128	66274 10 0 0 0 0 1 0 0 0 0
129	66284 10 0 0 0 0 1 1 1 1 1
130	66294 10 0 0 0 0 1 0 0 0 0
131	66304 10 0 0 0 0 1 1 1 1 1
132	66314 10 0 0 0 0 1 0 0 0 0
133	66324 10 0 0 0 0 1 1 1 1 1
134	66334 10 0 0 0 0 1 0 0 0 0
135	66344 10 0 0 0 0 1 1 1 1 1
136	66354 10 0 0 0 0 1 0 0 0 0
137	66364 10 0 0 0 0 1 1 1 1 1
138	66374 10 0 0 0 0 1 0 0 0 0
139	66384 10 0 0 0 0 1 1 1 1 1
140	66394 10 0 0 0 0 1 0 0 0 0
141	66404 10 0 0 0 0 1 1 1 1 1
142	66414 10 0 0 0 0 1 0 0 0 0
143	66424 10 0 0 0 0 1 1 1 1 1
144	66434 10 0 0 0 0 1 0 0 0 0
145	66444 10 0 0 0 0 1 1 1 1 1
146	66454 10 0 0 0 0 1 0 0 0 0
147	66464 10 0 0 0 0 1 1 1 1 1
148	66474 10 0 0 0 0 1 0 0 0 0
149	66484 10 0 0 0 0 1 1 1 1 1
150	66494 10 0 0 0 0 1 0 0 0 0
151	66504 10 0 0 0 0 1 1 1 1 1
152	66514 10 0 0 0 0 1 0 0 0 0
153	66524 10 0 0 0 0 1 1 1 1 1
154	66534 10 0 0 0 0 1 0 0 0 0
155	66544 10 0 0 0 0 1 1 1 1 1
156	66554 10 0 0 0 0 1 0 0 0 0
157	66564 10 0 0 0 0 1 1 1 1 1
158	66574 10 0 0 0 0 1 0 0 0 0
159	66584 10 0 0 0 0 1 1 1 1 1
160	66594 10 0 0 0 0 1 0 0 0 0
161	66604 10 0 0 0 0 1 1 1 1 1
162	66614 10 0 0 0 0 1 0 0 0 0
163	66624 10 0 0 0 0 1 1 1 1 1
164	66634 10 0 0 0 0 1 0 0 0 0
165	66644 10 0 0 0 0 1 1 1 1 1
166	66654 10 0 0 0 0 1 0 0 0 0
167	66664 10 0 0 0 0 1 1 1 1 1
168	66674 10 0 0 0 0 1 0 0 0 0
169	66684 10 0 0 0 0 1 1 1 1 1
170	66694 10 0 0 0 0 1 0 0 0 0
171	66704 10 0 0 0 0 1 1 1 1 1
172	66714 10 0 0 0 0 1 0 0 0 0
173	66724 10 0 0 0 0 1 1 1 1 1
174	66734 10 0 0 0 0 1 0 0 0 0
175	66744 10 0 0 0 0 1 1 1 1 1
176	66754 10 0 0 0 0 1 0 0 0 0
177	66764 10 0 0 0 0 1 1 1 1 1
178	66774 10 0 0 0 0 1 0 0 0 0
179	66784 10 0 0 0 0 1 1 1 1 1
180	66794 10 0 0 0 0 1 0 0 0 0
181	66804 10 0 0 0 0 1 1 1 1 1
182	66814 10 0 0 0 0 1 0 0 0 0
183	66824 10 0 0 0 0 1 1 1 1 1
184	66834 10 0 0 0 0 1 0 0 0 0
185	66844 10 0 0 0 0 1 1 1 1 1
186	66854 10 0 0 0 0 1 0 0 0 0
187	66864 10 0 0 0 0 1 1 1 1 1
188	66874 10 0 0 0 0 1 0 0 0 0
189	66884 10 0 0 0 0 1 1 1 1 1
190	66894 10 0 0 0 0 1 0 0 0 0
191	66904 10 0 0 0 0 1 1 1 1 1
192	66914 10 0 0 0 0 1 0 0 0 0
193	66924 10 0 0 0 0 1 1 1 1 1
194	66934 10 0 0 0 0 1 0 0 0 0
195	66944 10 0 0 0 0 1 1 1 1 1
196	66954 10 0 0 0 0 1 0 0 0 0
197	66964 10 0 0 0 0 1 1 1 1 1
198	66974 10 0 0 0 0 1 0 0 0 0
199	66984 10 0 0 0 0 1 1 1 1 1
200	66994 10 0 0 0 0 1 0 0 0 0
201	67004 10 0 0 0 0 1 1 1 1 1
202	67014 10 0 0 0 0 1 0 0 0 0
203	67024 10 0 0 0 0 1 1 1 1 1
204	67034 10 0 0 0 0 1 0 0 0 0
205	67044 10 0 0 0 0 1 1 1 1 1
206	67054 10 0 0 0 0 1 0 0 0 0

