version 3
run config1-0-20241216-04:55:50-6573
attr configname config1
attr datetime 20241216-04:55:50
attr datetimef 20241216-045550
attr experiment config1
attr inifile omnetpp.ini
attr iterationvars ""
attr iterationvarsd ""
attr iterationvarsf ""
attr measurement ""
attr network Topology
attr processid 6573
attr repetition 0
attr replication #0
attr resultdir results
attr runnumber 0
attr seedset 0
config image-path ../../simu5G/images:../../inet4.5/images
config extends General
config *.server.app[1..30].source.initialProductionOffset 10ms
config network Topology
config *.switch1.macTable.forwardingTable "[{address:\"0A-AA-00-00-00-01\", interface:\"eth2\"}]"
config *.switch2.macTable.forwardingTable "[{address:\"0A-AA-00-00-00-01\", interface:\"eth2\"}]"
config *.switch3.macTable.forwardingTable "[{address:\"0A-AA-00-00-00-01\", interface:\"eth2\"}]"
config *.switch4.macTable.forwardingTable "[{address:\"0A-AA-00-00-00-01\", interface:\"eth2\"}]"
config *.switch5.macTable.forwardingTable "[{address:\"0A-AA-00-00-00-01\", interface:\"eth2\"}]"
config *.switch6.macTable.forwardingTable "[{address:\"0A-AA-00-00-00-01\", interface:\"eth2\"}]"
config *.switch7.macTable.forwardingTable "[{address:\"0A-AA-00-00-00-01\", interface:\"eth0\"}]"
config **.li.filePath "\"/home/simu5g/simu5g-workspace/test/iatest/path.txt\""
config *.*.hasOutgoingStreams true
config **.ipv4.arp.typename GlobalArp
config *.*Client*.bridging.streamIdentifier.identifier.mapping "[{stream: \"besteffort\", packetFilter: expr(has(udp) && udp.destPort == 1000)},\n\t\t\t\t\t\t\t\t\t\t\t\t\t\t\t{stream: \"video\", packetFilter: expr(has(udp) && udp.destPort == 1001)}]"
config *.*Client*.bridging.streamCoder.encoder.mapping "[{stream: \"besteffort\", pcp: 0},\n\t\t\t\t\t\t\t\t\t\t\t\t\t{stream: \"video\", pcp: 4}]"
config *.server.bridging.streamIdentifier.identifier.mapping "[{stream: \"besteffort\", packetFilter: expr(has(udp) && udp.destPort == 1000)},\n\t\t\t\t\t\t\t\t\t\t\t\t\t\t\t{stream: \"video\", packetFilter: expr(has(udp) && udp.destPort == 1001)}]"
config *.server.bridging.streamCoder.encoder.mapping "[{stream: \"besteffort\", pcp: 0},\n\t\t\t\t\t\t\t\t\t\t\t\t\t{stream: \"video\", pcp: 4}]"
config *.switch*.hasEgressTrafficShaping true
config *.switch*.bridging.directionReverser.reverser.excludeEncapsulationProtocols "[\"ieee8021qctag\"]"
config *.switch*.bridging.streamIdentifier.identifier.mapping "[{stream: \"besteffort\", packetFilter: expr(has(udp) && udp.destPort == 1000)},\n\t\t\t\t\t\t\t\t\t\t\t\t\t\t\t{stream: \"video\", packetFilter: expr(has(udp) && udp.destPort == 1001)}]"
config *.switch*.bridging.streamCoder.encoder.mapping "[{stream: \"besteffort\", pcp: 0},\n\t\t\t\t\t\t\t\t\t\t\t\t\t{stream: \"video\", pcp: 4}]"
config *.switch*.bridging.streamCoder.decoder.mapping "[{pcp: 0, stream: \"besteffort\"},\n                                                 {pcp: 4, stream: \"video\"}]"
config *.switch*.eth[*].macLayer.queue.numTrafficClasses 2
config *.switch*.eth[*].macLayer.queue.*[0].display-name besteffort
config *.switch*.eth[*].macLayer.queue.*[1].display-name video
config *.*Client*.numApps 2
config *.*Client*.app[0].typename UdpSourceApp
config *.*Client*.app[0].display-name besteffort
config *.*Client*.app[0].io.destAddress "\"server\""
config *.*Client*.app[0].io.destPort 1000
config *.*Client*.app[0].io.localPort 1000
config *.*Client*.app[0].source.packetLength 16B
config *.*Client*.app[0].source.productionInterval 2ms
config *.*Client*.app[0].source.initialProductionOffset 0s
config *.*Client*.app[1].typename UdpSinkApp
config *.*Client*.app[1].display-name video
config *.*Client*.app[1].io.localPort 1001
config *.server.numApps 31
config *.server.app[0].typename UdpSinkApp
config *.server.app[0].display-name besteffort
config *.server.app[0].io.localPort 1000
config *.server.app[1..30].typename UdpSourceApp
config *.server.app[1..30].display-name video
config *.server.app[1..30].io.destPort 1001
config *.server.app[1..30].io.localPort 1000+ancestorIndex(1)
config *.server.app[1..10].source.packetLength 160B
config *.server.app[11..20].source.packetLength 320B
config *.server.app[21..30].source.packetLength 240B
config *.server.app[1..10].source.productionInterval 1ms
config *.server.app[11..20].source.productionInterval 2ms
config *.server.app[21..30].source.productionInterval 3ms
config *.server.app[1..5].io.destAddress "\"HVACClient[0]\""
config *.server.app[6..9].io.destAddress "\"HVACClient[1]\""
config *.server.app[10..14].io.destAddress "\"HVACClient[2]\""
config *.server.app[15..16].io.destAddress "\"HVACClient[3]\""
config *.server.app[17..20].io.destAddress "\"HVACClient[4]\""
config *.server.app[21..23].io.destAddress "\"HVACClient[5]\""
config *.server.app[24..27].io.destAddress "\"HVACClient[6]\""
config *.server.app[28..30].io.destAddress "\"HVACClient[7]\""

vector 0 Topology.server.eth[0].phyLayer.interFrameGapInserter interpacketGap:vector ETV
attr interpolationmode sample-hold
attr recordingmode vector
attr source "count(interpacketGapStarted) - count(interpacketGapEnded)"
attr title "interpacket gap state"
attr type int
vector 1 Topology.server.eth[0].phyLayer.transmitter transmitting:vector ETV
attr interpolationmode sample-hold
attr recordingmode vector
attr source "count(transmissionStarted) - count(transmissionEnded)"
attr title "transmitting state"
attr type int
vector 2 Topology.server.udp passedUpPk:vector(count) ETV
attr interpolationmode none
attr recordingmode vector(count)
attr source packetSentToUpper
attr title "packets passed up, count"
vector 3 Topology.server.udp droppedPkWrongPort:vector(count) ETV
attr interpolationmode none
attr recordingmode vector(count)
attr source packetDropReasonIsNoPortFound(packetDropped)
attr title "packets dropped (wrong port), count"
vector 4 Topology.server.udp droppedPkBadChecksum:vector(count) ETV
attr interpolationmode none
attr recordingmode vector(count)
attr source packetDropReasonIsIncorrectlyReceived(packetDropped)
attr title "packets dropped (checksum error), count"
vector 5 Topology.switch1.eth[0].phyLayer.interFrameGapInserter interpacketGap:vector ETV
attr interpolationmode sample-hold
attr recordingmode vector
attr source "count(interpacketGapStarted) - count(interpacketGapEnded)"
attr title "interpacket gap state"
attr type int
vector 6 Topology.switch1.eth[0].phyLayer.transmitter transmitting:vector ETV
attr interpolationmode sample-hold
attr recordingmode vector
attr source "count(transmissionStarted) - count(transmissionEnded)"
attr title "transmitting state"
attr type int
vector 7 Topology.switch1.eth[1].phyLayer.interFrameGapInserter interpacketGap:vector ETV
attr interpolationmode sample-hold
attr recordingmode vector
attr source "count(interpacketGapStarted) - count(interpacketGapEnded)"
attr title "interpacket gap state"
attr type int
vector 8 Topology.switch1.eth[1].phyLayer.transmitter transmitting:vector ETV
attr interpolationmode sample-hold
attr recordingmode vector
attr source "count(transmissionStarted) - count(transmissionEnded)"
attr title "transmitting state"
attr type int
vector 9 Topology.switch1.eth[2].phyLayer.interFrameGapInserter interpacketGap:vector ETV
attr interpolationmode sample-hold
attr recordingmode vector
attr source "count(interpacketGapStarted) - count(interpacketGapEnded)"
attr title "interpacket gap state"
attr type int
vector 10 Topology.switch1.eth[2].phyLayer.transmitter transmitting:vector ETV
attr interpolationmode sample-hold
attr recordingmode vector
attr source "count(transmissionStarted) - count(transmissionEnded)"
attr title "transmitting state"
attr type int
vector 11 Topology.switch1.eth[3].phyLayer.interFrameGapInserter interpacketGap:vector ETV
attr interpolationmode sample-hold
attr recordingmode vector
attr source "count(interpacketGapStarted) - count(interpacketGapEnded)"
attr title "interpacket gap state"
attr type int
vector 12 Topology.switch1.eth[3].phyLayer.transmitter transmitting:vector ETV
attr interpolationmode sample-hold
attr recordingmode vector
attr source "count(transmissionStarted) - count(transmissionEnded)"
attr title "transmitting state"
attr type int
vector 13 Topology.switch2.eth[0].phyLayer.interFrameGapInserter interpacketGap:vector ETV
attr interpolationmode sample-hold
attr recordingmode vector
attr source "count(interpacketGapStarted) - count(interpacketGapEnded)"
attr title "interpacket gap state"
attr type int
vector 14 Topology.switch2.eth[0].phyLayer.transmitter transmitting:vector ETV
attr interpolationmode sample-hold
attr recordingmode vector
attr source "count(transmissionStarted) - count(transmissionEnded)"
attr title "transmitting state"
attr type int
vector 15 Topology.switch2.eth[1].phyLayer.interFrameGapInserter interpacketGap:vector ETV
attr interpolationmode sample-hold
attr recordingmode vector
attr source "count(interpacketGapStarted) - count(interpacketGapEnded)"
attr title "interpacket gap state"
attr type int
vector 16 Topology.switch2.eth[1].phyLayer.transmitter transmitting:vector ETV
attr interpolationmode sample-hold
attr recordingmode vector
attr source "count(transmissionStarted) - count(transmissionEnded)"
attr title "transmitting state"
attr type int
vector 17 Topology.switch2.eth[2].phyLayer.interFrameGapInserter interpacketGap:vector ETV
attr interpolationmode sample-hold
attr recordingmode vector
attr source "count(interpacketGapStarted) - count(interpacketGapEnded)"
attr title "interpacket gap state"
attr type int
vector 18 Topology.switch2.eth[2].phyLayer.transmitter transmitting:vector ETV
attr interpolationmode sample-hold
attr recordingmode vector
attr source "count(transmissionStarted) - count(transmissionEnded)"
attr title "transmitting state"
attr type int
vector 19 Topology.switch2.eth[3].phyLayer.interFrameGapInserter interpacketGap:vector ETV
attr interpolationmode sample-hold
attr recordingmode vector
attr source "count(interpacketGapStarted) - count(interpacketGapEnded)"
attr title "interpacket gap state"
attr type int
vector 20 Topology.switch2.eth[3].phyLayer.transmitter transmitting:vector ETV
attr interpolationmode sample-hold
attr recordingmode vector
attr source "count(transmissionStarted) - count(transmissionEnded)"
attr title "transmitting state"
attr type int
vector 21 Topology.switch2.eth[4].phyLayer.interFrameGapInserter interpacketGap:vector ETV
attr interpolationmode sample-hold
attr recordingmode vector
attr source "count(interpacketGapStarted) - count(interpacketGapEnded)"
attr title "interpacket gap state"
attr type int
vector 22 Topology.switch2.eth[4].phyLayer.transmitter transmitting:vector ETV
attr interpolationmode sample-hold
attr recordingmode vector
attr source "count(transmissionStarted) - count(transmissionEnded)"
attr title "transmitting state"
attr type int
vector 23 Topology.switch3.eth[0].phyLayer.interFrameGapInserter interpacketGap:vector ETV
attr interpolationmode sample-hold
attr recordingmode vector
attr source "count(interpacketGapStarted) - count(interpacketGapEnded)"
attr title "interpacket gap state"
attr type int
vector 24 Topology.switch3.eth[0].phyLayer.transmitter transmitting:vector ETV
attr interpolationmode sample-hold
attr recordingmode vector
attr source "count(transmissionStarted) - count(transmissionEnded)"
attr title "transmitting state"
attr type int
vector 25 Topology.switch3.eth[1].phyLayer.interFrameGapInserter interpacketGap:vector ETV
attr interpolationmode sample-hold
attr recordingmode vector
attr source "count(interpacketGapStarted) - count(interpacketGapEnded)"
attr title "interpacket gap state"
attr type int
vector 26 Topology.switch3.eth[1].phyLayer.transmitter transmitting:vector ETV
attr interpolationmode sample-hold
attr recordingmode vector
attr source "count(transmissionStarted) - count(transmissionEnded)"
attr title "transmitting state"
attr type int
vector 27 Topology.switch3.eth[2].phyLayer.interFrameGapInserter interpacketGap:vector ETV
attr interpolationmode sample-hold
attr recordingmode vector
attr source "count(interpacketGapStarted) - count(interpacketGapEnded)"
attr title "interpacket gap state"
attr type int
vector 28 Topology.switch3.eth[2].phyLayer.transmitter transmitting:vector ETV
attr interpolationmode sample-hold
attr recordingmode vector
attr source "count(transmissionStarted) - count(transmissionEnded)"
attr title "transmitting state"
attr type int
vector 29 Topology.switch3.eth[3].phyLayer.interFrameGapInserter interpacketGap:vector ETV
attr interpolationmode sample-hold
attr recordingmode vector
attr source "count(interpacketGapStarted) - count(interpacketGapEnded)"
attr title "interpacket gap state"
attr type int
vector 30 Topology.switch3.eth[3].phyLayer.transmitter transmitting:vector ETV
attr interpolationmode sample-hold
attr recordingmode vector
attr source "count(transmissionStarted) - count(transmissionEnded)"
attr title "transmitting state"
attr type int
vector 31 Topology.switch3.eth[4].phyLayer.interFrameGapInserter interpacketGap:vector ETV
attr interpolationmode sample-hold
attr recordingmode vector
attr source "count(interpacketGapStarted) - count(interpacketGapEnded)"
attr title "interpacket gap state"
attr type int
vector 32 Topology.switch3.eth[4].phyLayer.transmitter transmitting:vector ETV
attr interpolationmode sample-hold
attr recordingmode vector
attr source "count(transmissionStarted) - count(transmissionEnded)"
attr title "transmitting state"
attr type int
vector 33 Topology.switch4.eth[0].phyLayer.interFrameGapInserter interpacketGap:vector ETV
attr interpolationmode sample-hold
attr recordingmode vector
attr source "count(interpacketGapStarted) - count(interpacketGapEnded)"
attr title "interpacket gap state"
attr type int
vector 34 Topology.switch4.eth[0].phyLayer.transmitter transmitting:vector ETV
attr interpolationmode sample-hold
attr recordingmode vector
attr source "count(transmissionStarted) - count(transmissionEnded)"
attr title "transmitting state"
attr type int
vector 35 Topology.switch4.eth[1].phyLayer.interFrameGapInserter interpacketGap:vector ETV
attr interpolationmode sample-hold
attr recordingmode vector
attr source "count(interpacketGapStarted) - count(interpacketGapEnded)"
attr title "interpacket gap state"
attr type int
vector 36 Topology.switch4.eth[1].phyLayer.transmitter transmitting:vector ETV
attr interpolationmode sample-hold
attr recordingmode vector
attr source "count(transmissionStarted) - count(transmissionEnded)"
attr title "transmitting state"
attr type int
vector 37 Topology.switch4.eth[2].phyLayer.interFrameGapInserter interpacketGap:vector ETV
attr interpolationmode sample-hold
attr recordingmode vector
attr source "count(interpacketGapStarted) - count(interpacketGapEnded)"
attr title "interpacket gap state"
attr type int
vector 38 Topology.switch4.eth[2].phyLayer.transmitter transmitting:vector ETV
attr interpolationmode sample-hold
attr recordingmode vector
attr source "count(transmissionStarted) - count(transmissionEnded)"
attr title "transmitting state"
attr type int
vector 39 Topology.switch4.eth[3].phyLayer.interFrameGapInserter interpacketGap:vector ETV
attr interpolationmode sample-hold
attr recordingmode vector
attr source "count(interpacketGapStarted) - count(interpacketGapEnded)"
attr title "interpacket gap state"
attr type int
vector 40 Topology.switch4.eth[3].phyLayer.transmitter transmitting:vector ETV
attr interpolationmode sample-hold
attr recordingmode vector
attr source "count(transmissionStarted) - count(transmissionEnded)"
attr title "transmitting state"
attr type int
vector 41 Topology.switch5.eth[0].phyLayer.interFrameGapInserter interpacketGap:vector ETV
attr interpolationmode sample-hold
attr recordingmode vector
attr source "count(interpacketGapStarted) - count(interpacketGapEnded)"
attr title "interpacket gap state"
attr type int
vector 42 Topology.switch5.eth[0].phyLayer.transmitter transmitting:vector ETV
attr interpolationmode sample-hold
attr recordingmode vector
attr source "count(transmissionStarted) - count(transmissionEnded)"
attr title "transmitting state"
attr type int
vector 43 Topology.switch5.eth[1].phyLayer.interFrameGapInserter interpacketGap:vector ETV
attr interpolationmode sample-hold
attr recordingmode vector
attr source "count(interpacketGapStarted) - count(interpacketGapEnded)"
attr title "interpacket gap state"
attr type int
vector 44 Topology.switch5.eth[1].phyLayer.transmitter transmitting:vector ETV
attr interpolationmode sample-hold
attr recordingmode vector
attr source "count(transmissionStarted) - count(transmissionEnded)"
attr title "transmitting state"
attr type int
vector 45 Topology.switch5.eth[2].phyLayer.interFrameGapInserter interpacketGap:vector ETV
attr interpolationmode sample-hold
attr recordingmode vector
attr source "count(interpacketGapStarted) - count(interpacketGapEnded)"
attr title "interpacket gap state"
attr type int
vector 46 Topology.switch5.eth[2].phyLayer.transmitter transmitting:vector ETV
attr interpolationmode sample-hold
attr recordingmode vector
attr source "count(transmissionStarted) - count(transmissionEnded)"
attr title "transmitting state"
attr type int
vector 47 Topology.switch6.eth[0].phyLayer.interFrameGapInserter interpacketGap:vector ETV
attr interpolationmode sample-hold
attr recordingmode vector
attr source "count(interpacketGapStarted) - count(interpacketGapEnded)"
attr title "interpacket gap state"
attr type int
vector 48 Topology.switch6.eth[0].phyLayer.transmitter transmitting:vector ETV
attr interpolationmode sample-hold
attr recordingmode vector
attr source "count(transmissionStarted) - count(transmissionEnded)"
attr title "transmitting state"
attr type int
vector 49 Topology.switch6.eth[1].phyLayer.interFrameGapInserter interpacketGap:vector ETV
attr interpolationmode sample-hold
attr recordingmode vector
attr source "count(interpacketGapStarted) - count(interpacketGapEnded)"
attr title "interpacket gap state"
attr type int
vector 50 Topology.switch6.eth[1].phyLayer.transmitter transmitting:vector ETV
attr interpolationmode sample-hold
attr recordingmode vector
attr source "count(transmissionStarted) - count(transmissionEnded)"
attr title "transmitting state"
attr type int
vector 51 Topology.switch6.eth[2].phyLayer.interFrameGapInserter interpacketGap:vector ETV
attr interpolationmode sample-hold
attr recordingmode vector
attr source "count(interpacketGapStarted) - count(interpacketGapEnded)"
attr title "interpacket gap state"
attr type int
vector 52 Topology.switch6.eth[2].phyLayer.transmitter transmitting:vector ETV
attr interpolationmode sample-hold
attr recordingmode vector
attr source "count(transmissionStarted) - count(transmissionEnded)"
attr title "transmitting state"
attr type int
vector 53 Topology.switch7.eth[0].phyLayer.interFrameGapInserter interpacketGap:vector ETV
attr interpolationmode sample-hold
attr recordingmode vector
attr source "count(interpacketGapStarted) - count(interpacketGapEnded)"
attr title "interpacket gap state"
attr type int
vector 54 Topology.switch7.eth[0].phyLayer.transmitter transmitting:vector ETV
attr interpolationmode sample-hold
attr recordingmode vector
attr source "count(transmissionStarted) - count(transmissionEnded)"
attr title "transmitting state"
attr type int
vector 55 Topology.switch7.eth[1].phyLayer.interFrameGapInserter interpacketGap:vector ETV
attr interpolationmode sample-hold
attr recordingmode vector
attr source "count(interpacketGapStarted) - count(interpacketGapEnded)"
attr title "interpacket gap state"
attr type int
vector 56 Topology.switch7.eth[1].phyLayer.transmitter transmitting:vector ETV
attr interpolationmode sample-hold
attr recordingmode vector
attr source "count(transmissionStarted) - count(transmissionEnded)"
attr title "transmitting state"
attr type int
vector 57 Topology.switch7.eth[2].phyLayer.interFrameGapInserter interpacketGap:vector ETV
attr interpolationmode sample-hold
attr recordingmode vector
attr source "count(interpacketGapStarted) - count(interpacketGapEnded)"
attr title "interpacket gap state"
attr type int
vector 58 Topology.switch7.eth[2].phyLayer.transmitter transmitting:vector ETV
attr interpolationmode sample-hold
attr recordingmode vector
attr source "count(transmissionStarted) - count(transmissionEnded)"
attr title "transmitting state"
attr type int
vector 59 Topology.HVACClient[0].eth[0].phyLayer.interFrameGapInserter interpacketGap:vector ETV
attr interpolationmode sample-hold
attr recordingmode vector
attr source "count(interpacketGapStarted) - count(interpacketGapEnded)"
attr title "interpacket gap state"
attr type int
vector 60 Topology.HVACClient[0].eth[0].phyLayer.transmitter transmitting:vector ETV
attr interpolationmode sample-hold
attr recordingmode vector
attr source "count(transmissionStarted) - count(transmissionEnded)"
attr title "transmitting state"
attr type int
vector 61 Topology.HVACClient[0].udp passedUpPk:vector(count) ETV
attr interpolationmode none
attr recordingmode vector(count)
attr source packetSentToUpper
attr title "packets passed up, count"
vector 62 Topology.HVACClient[0].udp droppedPkWrongPort:vector(count) ETV
attr interpolationmode none
attr recordingmode vector(count)
attr source packetDropReasonIsNoPortFound(packetDropped)
attr title "packets dropped (wrong port), count"
vector 63 Topology.HVACClient[0].udp droppedPkBadChecksum:vector(count) ETV
attr interpolationmode none
attr recordingmode vector(count)
attr source packetDropReasonIsIncorrectlyReceived(packetDropped)
attr title "packets dropped (checksum error), count"
vector 64 Topology.HVACClient[1].eth[0].phyLayer.interFrameGapInserter interpacketGap:vector ETV
attr interpolationmode sample-hold
attr recordingmode vector
attr source "count(interpacketGapStarted) - count(interpacketGapEnded)"
attr title "interpacket gap state"
attr type int
vector 65 Topology.HVACClient[1].eth[0].phyLayer.transmitter transmitting:vector ETV
attr interpolationmode sample-hold
attr recordingmode vector
attr source "count(transmissionStarted) - count(transmissionEnded)"
attr title "transmitting state"
attr type int
vector 66 Topology.HVACClient[1].udp passedUpPk:vector(count) ETV
attr interpolationmode none
attr recordingmode vector(count)
attr source packetSentToUpper
attr title "packets passed up, count"
vector 67 Topology.HVACClient[1].udp droppedPkWrongPort:vector(count) ETV
attr interpolationmode none
attr recordingmode vector(count)
attr source packetDropReasonIsNoPortFound(packetDropped)
attr title "packets dropped (wrong port), count"
vector 68 Topology.HVACClient[1].udp droppedPkBadChecksum:vector(count) ETV
attr interpolationmode none
attr recordingmode vector(count)
attr source packetDropReasonIsIncorrectlyReceived(packetDropped)
attr title "packets dropped (checksum error), count"
vector 69 Topology.HVACClient[2].eth[0].phyLayer.interFrameGapInserter interpacketGap:vector ETV
attr interpolationmode sample-hold
attr recordingmode vector
attr source "count(interpacketGapStarted) - count(interpacketGapEnded)"
attr title "interpacket gap state"
attr type int
vector 70 Topology.HVACClient[2].eth[0].phyLayer.transmitter transmitting:vector ETV
attr interpolationmode sample-hold
attr recordingmode vector
attr source "count(transmissionStarted) - count(transmissionEnded)"
attr title "transmitting state"
attr type int
vector 71 Topology.HVACClient[2].udp passedUpPk:vector(count) ETV
attr interpolationmode none
attr recordingmode vector(count)
attr source packetSentToUpper
attr title "packets passed up, count"
vector 72 Topology.HVACClient[2].udp droppedPkWrongPort:vector(count) ETV
attr interpolationmode none
attr recordingmode vector(count)
attr source packetDropReasonIsNoPortFound(packetDropped)
attr title "packets dropped (wrong port), count"
vector 73 Topology.HVACClient[2].udp droppedPkBadChecksum:vector(count) ETV
attr interpolationmode none
attr recordingmode vector(count)
attr source packetDropReasonIsIncorrectlyReceived(packetDropped)
attr title "packets dropped (checksum error), count"
vector 74 Topology.HVACClient[3].eth[0].phyLayer.interFrameGapInserter interpacketGap:vector ETV
attr interpolationmode sample-hold
attr recordingmode vector
attr source "count(interpacketGapStarted) - count(interpacketGapEnded)"
attr title "interpacket gap state"
attr type int
vector 75 Topology.HVACClient[3].eth[0].phyLayer.transmitter transmitting:vector ETV
attr interpolationmode sample-hold
attr recordingmode vector
attr source "count(transmissionStarted) - count(transmissionEnded)"
attr title "transmitting state"
attr type int
vector 76 Topology.HVACClient[3].udp passedUpPk:vector(count) ETV
attr interpolationmode none
attr recordingmode vector(count)
attr source packetSentToUpper
attr title "packets passed up, count"
vector 77 Topology.HVACClient[3].udp droppedPkWrongPort:vector(count) ETV
attr interpolationmode none
attr recordingmode vector(count)
attr source packetDropReasonIsNoPortFound(packetDropped)
attr title "packets dropped (wrong port), count"
vector 78 Topology.HVACClient[3].udp droppedPkBadChecksum:vector(count) ETV
attr interpolationmode none
attr recordingmode vector(count)
attr source packetDropReasonIsIncorrectlyReceived(packetDropped)
attr title "packets dropped (checksum error), count"
vector 79 Topology.HVACClient[4].eth[0].phyLayer.interFrameGapInserter interpacketGap:vector ETV
attr interpolationmode sample-hold
attr recordingmode vector
attr source "count(interpacketGapStarted) - count(interpacketGapEnded)"
attr title "interpacket gap state"
attr type int
vector 80 Topology.HVACClient[4].eth[0].phyLayer.transmitter transmitting:vector ETV
attr interpolationmode sample-hold
attr recordingmode vector
attr source "count(transmissionStarted) - count(transmissionEnded)"
attr title "transmitting state"
attr type int
vector 81 Topology.HVACClient[4].udp passedUpPk:vector(count) ETV
attr interpolationmode none
attr recordingmode vector(count)
attr source packetSentToUpper
attr title "packets passed up, count"
vector 82 Topology.HVACClient[4].udp droppedPkWrongPort:vector(count) ETV
attr interpolationmode none
attr recordingmode vector(count)
attr source packetDropReasonIsNoPortFound(packetDropped)
attr title "packets dropped (wrong port), count"
vector 83 Topology.HVACClient[4].udp droppedPkBadChecksum:vector(count) ETV
attr interpolationmode none
attr recordingmode vector(count)
attr source packetDropReasonIsIncorrectlyReceived(packetDropped)
attr title "packets dropped (checksum error), count"
vector 84 Topology.HVACClient[5].eth[0].phyLayer.interFrameGapInserter interpacketGap:vector ETV
attr interpolationmode sample-hold
attr recordingmode vector
attr source "count(interpacketGapStarted) - count(interpacketGapEnded)"
attr title "interpacket gap state"
attr type int
vector 85 Topology.HVACClient[5].eth[0].phyLayer.transmitter transmitting:vector ETV
attr interpolationmode sample-hold
attr recordingmode vector
attr source "count(transmissionStarted) - count(transmissionEnded)"
attr title "transmitting state"
attr type int
vector 86 Topology.HVACClient[5].udp passedUpPk:vector(count) ETV
attr interpolationmode none
attr recordingmode vector(count)
attr source packetSentToUpper
attr title "packets passed up, count"
vector 87 Topology.HVACClient[5].udp droppedPkWrongPort:vector(count) ETV
attr interpolationmode none
attr recordingmode vector(count)
attr source packetDropReasonIsNoPortFound(packetDropped)
attr title "packets dropped (wrong port), count"
vector 88 Topology.HVACClient[5].udp droppedPkBadChecksum:vector(count) ETV
attr interpolationmode none
attr recordingmode vector(count)
attr source packetDropReasonIsIncorrectlyReceived(packetDropped)
attr title "packets dropped (checksum error), count"
vector 89 Topology.HVACClient[6].eth[0].phyLayer.interFrameGapInserter interpacketGap:vector ETV
attr interpolationmode sample-hold
attr recordingmode vector
attr source "count(interpacketGapStarted) - count(interpacketGapEnded)"
attr title "interpacket gap state"
attr type int
vector 90 Topology.HVACClient[6].eth[0].phyLayer.transmitter transmitting:vector ETV
attr interpolationmode sample-hold
attr recordingmode vector
attr source "count(transmissionStarted) - count(transmissionEnded)"
attr title "transmitting state"
attr type int
vector 91 Topology.HVACClient[6].udp passedUpPk:vector(count) ETV
attr interpolationmode none
attr recordingmode vector(count)
attr source packetSentToUpper
attr title "packets passed up, count"
vector 92 Topology.HVACClient[6].udp droppedPkWrongPort:vector(count) ETV
attr interpolationmode none
attr recordingmode vector(count)
attr source packetDropReasonIsNoPortFound(packetDropped)
attr title "packets dropped (wrong port), count"
vector 93 Topology.HVACClient[6].udp droppedPkBadChecksum:vector(count) ETV
attr interpolationmode none
attr recordingmode vector(count)
attr source packetDropReasonIsIncorrectlyReceived(packetDropped)
attr title "packets dropped (checksum error), count"
vector 94 Topology.HVACClient[7].eth[0].phyLayer.interFrameGapInserter interpacketGap:vector ETV
attr interpolationmode sample-hold
attr recordingmode vector
attr source "count(interpacketGapStarted) - count(interpacketGapEnded)"
attr title "interpacket gap state"
attr type int
vector 95 Topology.HVACClient[7].eth[0].phyLayer.transmitter transmitting:vector ETV
attr interpolationmode sample-hold
attr recordingmode vector
attr source "count(transmissionStarted) - count(transmissionEnded)"
attr title "transmitting state"
attr type int
vector 96 Topology.HVACClient[7].udp passedUpPk:vector(count) ETV
attr interpolationmode none
attr recordingmode vector(count)
attr source packetSentToUpper
attr title "packets passed up, count"
vector 97 Topology.HVACClient[7].udp droppedPkWrongPort:vector(count) ETV
attr interpolationmode none
attr recordingmode vector(count)
attr source packetDropReasonIsNoPortFound(packetDropped)
attr title "packets dropped (wrong port), count"
vector 98 Topology.HVACClient[7].udp droppedPkBadChecksum:vector(count) ETV
attr interpolationmode none
attr recordingmode vector(count)
attr source packetDropReasonIsIncorrectlyReceived(packetDropped)
attr title "packets dropped (checksum error), count"
vector 99 Topology.switch1.eth[0].macLayer.queue.transmissionGate[0] gateState:vector ETV
attr enum CLOSED,OPEN
attr interpolationmode sample-hold
attr moduledisplaypath Topology.switch1.eth[0].macLayer.queue.besteffort
attr recordingmode vector
attr source gateStateChanged
attr title "gate state"
attr type enum
vector 100 Topology.switch1.eth[0].macLayer.queue.transmissionGate[0] guardBandState:vector ETV
attr enum ON,OFF
attr interpolationmode sample-hold
attr moduledisplaypath Topology.switch1.eth[0].macLayer.queue.besteffort
attr recordingmode vector
attr source guardBandStateChanged
attr title "guard band state"
attr type enum
vector 101 Topology.switch1.eth[0].macLayer.queue.transmissionGate[1] gateState:vector ETV
attr enum CLOSED,OPEN
attr interpolationmode sample-hold
attr moduledisplaypath Topology.switch1.eth[0].macLayer.queue.video
attr recordingmode vector
attr source gateStateChanged
attr title "gate state"
attr type enum
vector 102 Topology.switch1.eth[0].macLayer.queue.transmissionGate[1] guardBandState:vector ETV
attr enum ON,OFF
attr interpolationmode sample-hold
attr moduledisplaypath Topology.switch1.eth[0].macLayer.queue.video
attr recordingmode vector
attr source guardBandStateChanged
attr title "guard band state"
attr type enum
vector 103 Topology.switch1.eth[1].macLayer.queue.transmissionGate[0] gateState:vector ETV
attr enum CLOSED,OPEN
attr interpolationmode sample-hold
attr moduledisplaypath Topology.switch1.eth[1].macLayer.queue.besteffort
attr recordingmode vector
attr source gateStateChanged
attr title "gate state"
attr type enum
vector 104 Topology.switch1.eth[1].macLayer.queue.transmissionGate[0] guardBandState:vector ETV
attr enum ON,OFF
attr interpolationmode sample-hold
attr moduledisplaypath Topology.switch1.eth[1].macLayer.queue.besteffort
attr recordingmode vector
attr source guardBandStateChanged
attr title "guard band state"
attr type enum
vector 105 Topology.switch1.eth[1].macLayer.queue.transmissionGate[1] gateState:vector ETV
attr enum CLOSED,OPEN
attr interpolationmode sample-hold
attr moduledisplaypath Topology.switch1.eth[1].macLayer.queue.video
attr recordingmode vector
attr source gateStateChanged
attr title "gate state"
attr type enum
vector 106 Topology.switch1.eth[1].macLayer.queue.transmissionGate[1] guardBandState:vector ETV
attr enum ON,OFF
attr interpolationmode sample-hold
attr moduledisplaypath Topology.switch1.eth[1].macLayer.queue.video
attr recordingmode vector
attr source guardBandStateChanged
attr title "guard band state"
attr type enum
vector 107 Topology.switch1.eth[2].macLayer.queue.transmissionGate[0] gateState:vector ETV
attr enum CLOSED,OPEN
attr interpolationmode sample-hold
attr moduledisplaypath Topology.switch1.eth[2].macLayer.queue.besteffort
attr recordingmode vector
attr source gateStateChanged
attr title "gate state"
attr type enum
vector 108 Topology.switch1.eth[2].macLayer.queue.transmissionGate[0] guardBandState:vector ETV
attr enum ON,OFF
attr interpolationmode sample-hold
attr moduledisplaypath Topology.switch1.eth[2].macLayer.queue.besteffort
attr recordingmode vector
attr source guardBandStateChanged
attr title "guard band state"
attr type enum
vector 109 Topology.switch1.eth[2].macLayer.queue.transmissionGate[1] gateState:vector ETV
attr enum CLOSED,OPEN
attr interpolationmode sample-hold
attr moduledisplaypath Topology.switch1.eth[2].macLayer.queue.video
attr recordingmode vector
attr source gateStateChanged
attr title "gate state"
attr type enum
vector 110 Topology.switch1.eth[2].macLayer.queue.transmissionGate[1] guardBandState:vector ETV
attr enum ON,OFF
attr interpolationmode sample-hold
attr moduledisplaypath Topology.switch1.eth[2].macLayer.queue.video
attr recordingmode vector
attr source guardBandStateChanged
attr title "guard band state"
attr type enum
vector 111 Topology.switch1.eth[3].macLayer.queue.transmissionGate[0] gateState:vector ETV
attr enum CLOSED,OPEN
attr interpolationmode sample-hold
attr moduledisplaypath Topology.switch1.eth[3].macLayer.queue.besteffort
attr recordingmode vector
attr source gateStateChanged
attr title "gate state"
attr type enum
vector 112 Topology.switch1.eth[3].macLayer.queue.transmissionGate[0] guardBandState:vector ETV
attr enum ON,OFF
attr interpolationmode sample-hold
attr moduledisplaypath Topology.switch1.eth[3].macLayer.queue.besteffort
attr recordingmode vector
attr source guardBandStateChanged
attr title "guard band state"
attr type enum
vector 113 Topology.switch1.eth[3].macLayer.queue.transmissionGate[1] gateState:vector ETV
attr enum CLOSED,OPEN
attr interpolationmode sample-hold
attr moduledisplaypath Topology.switch1.eth[3].macLayer.queue.video
attr recordingmode vector
attr source gateStateChanged
attr title "gate state"
attr type enum
vector 114 Topology.switch1.eth[3].macLayer.queue.transmissionGate[1] guardBandState:vector ETV
attr enum ON,OFF
attr interpolationmode sample-hold
attr moduledisplaypath Topology.switch1.eth[3].macLayer.queue.video
attr recordingmode vector
attr source guardBandStateChanged
attr title "guard band state"
attr type enum
vector 115 Topology.switch2.eth[0].macLayer.queue.transmissionGate[0] gateState:vector ETV
attr enum CLOSED,OPEN
attr interpolationmode sample-hold
attr moduledisplaypath Topology.switch2.eth[0].macLayer.queue.besteffort
attr recordingmode vector
attr source gateStateChanged
attr title "gate state"
attr type enum
vector 116 Topology.switch2.eth[0].macLayer.queue.transmissionGate[0] guardBandState:vector ETV
attr enum ON,OFF
attr interpolationmode sample-hold
attr moduledisplaypath Topology.switch2.eth[0].macLayer.queue.besteffort
attr recordingmode vector
attr source guardBandStateChanged
attr title "guard band state"
attr type enum
vector 117 Topology.switch2.eth[0].macLayer.queue.transmissionGate[1] gateState:vector ETV
attr enum CLOSED,OPEN
attr interpolationmode sample-hold
attr moduledisplaypath Topology.switch2.eth[0].macLayer.queue.video
attr recordingmode vector
attr source gateStateChanged
attr title "gate state"
attr type enum
vector 118 Topology.switch2.eth[0].macLayer.queue.transmissionGate[1] guardBandState:vector ETV
attr enum ON,OFF
attr interpolationmode sample-hold
attr moduledisplaypath Topology.switch2.eth[0].macLayer.queue.video
attr recordingmode vector
attr source guardBandStateChanged
attr title "guard band state"
attr type enum
vector 119 Topology.switch2.eth[1].macLayer.queue.transmissionGate[0] gateState:vector ETV
attr enum CLOSED,OPEN
attr interpolationmode sample-hold
attr moduledisplaypath Topology.switch2.eth[1].macLayer.queue.besteffort
attr recordingmode vector
attr source gateStateChanged
attr title "gate state"
attr type enum
vector 120 Topology.switch2.eth[1].macLayer.queue.transmissionGate[0] guardBandState:vector ETV
attr enum ON,OFF
attr interpolationmode sample-hold
attr moduledisplaypath Topology.switch2.eth[1].macLayer.queue.besteffort
attr recordingmode vector
attr source guardBandStateChanged
attr title "guard band state"
attr type enum
vector 121 Topology.switch2.eth[1].macLayer.queue.transmissionGate[1] gateState:vector ETV
attr enum CLOSED,OPEN
attr interpolationmode sample-hold
attr moduledisplaypath Topology.switch2.eth[1].macLayer.queue.video
attr recordingmode vector
attr source gateStateChanged
attr title "gate state"
attr type enum
vector 122 Topology.switch2.eth[1].macLayer.queue.transmissionGate[1] guardBandState:vector ETV
attr enum ON,OFF
attr interpolationmode sample-hold
attr moduledisplaypath Topology.switch2.eth[1].macLayer.queue.video
attr recordingmode vector
attr source guardBandStateChanged
attr title "guard band state"
attr type enum
vector 123 Topology.switch2.eth[2].macLayer.queue.transmissionGate[0] gateState:vector ETV
attr enum CLOSED,OPEN
attr interpolationmode sample-hold
attr moduledisplaypath Topology.switch2.eth[2].macLayer.queue.besteffort
attr recordingmode vector
attr source gateStateChanged
attr title "gate state"
attr type enum
vector 124 Topology.switch2.eth[2].macLayer.queue.transmissionGate[0] guardBandState:vector ETV
attr enum ON,OFF
attr interpolationmode sample-hold
attr moduledisplaypath Topology.switch2.eth[2].macLayer.queue.besteffort
attr recordingmode vector
attr source guardBandStateChanged
attr title "guard band state"
attr type enum
vector 125 Topology.switch2.eth[2].macLayer.queue.transmissionGate[1] gateState:vector ETV
attr enum CLOSED,OPEN
attr interpolationmode sample-hold
attr moduledisplaypath Topology.switch2.eth[2].macLayer.queue.video
attr recordingmode vector
attr source gateStateChanged
attr title "gate state"
attr type enum
vector 126 Topology.switch2.eth[2].macLayer.queue.transmissionGate[1] guardBandState:vector ETV
attr enum ON,OFF
attr interpolationmode sample-hold
attr moduledisplaypath Topology.switch2.eth[2].macLayer.queue.video
attr recordingmode vector
attr source guardBandStateChanged
attr title "guard band state"
attr type enum
vector 127 Topology.switch2.eth[3].macLayer.queue.transmissionGate[0] gateState:vector ETV
attr enum CLOSED,OPEN
attr interpolationmode sample-hold
attr moduledisplaypath Topology.switch2.eth[3].macLayer.queue.besteffort
attr recordingmode vector
attr source gateStateChanged
attr title "gate state"
attr type enum
vector 128 Topology.switch2.eth[3].macLayer.queue.transmissionGate[0] guardBandState:vector ETV
attr enum ON,OFF
attr interpolationmode sample-hold
attr moduledisplaypath Topology.switch2.eth[3].macLayer.queue.besteffort
attr recordingmode vector
attr source guardBandStateChanged
attr title "guard band state"
attr type enum
vector 129 Topology.switch2.eth[3].macLayer.queue.transmissionGate[1] gateState:vector ETV
attr enum CLOSED,OPEN
attr interpolationmode sample-hold
attr moduledisplaypath Topology.switch2.eth[3].macLayer.queue.video
attr recordingmode vector
attr source gateStateChanged
attr title "gate state"
attr type enum
vector 130 Topology.switch2.eth[3].macLayer.queue.transmissionGate[1] guardBandState:vector ETV
attr enum ON,OFF
attr interpolationmode sample-hold
attr moduledisplaypath Topology.switch2.eth[3].macLayer.queue.video
attr recordingmode vector
attr source guardBandStateChanged
attr title "guard band state"
attr type enum
vector 131 Topology.switch2.eth[4].macLayer.queue.transmissionGate[0] gateState:vector ETV
attr enum CLOSED,OPEN
attr interpolationmode sample-hold
attr moduledisplaypath Topology.switch2.eth[4].macLayer.queue.besteffort
attr recordingmode vector
attr source gateStateChanged
attr title "gate state"
attr type enum
vector 132 Topology.switch2.eth[4].macLayer.queue.transmissionGate[0] guardBandState:vector ETV
attr enum ON,OFF
attr interpolationmode sample-hold
attr moduledisplaypath Topology.switch2.eth[4].macLayer.queue.besteffort
attr recordingmode vector
attr source guardBandStateChanged
attr title "guard band state"
attr type enum
vector 133 Topology.switch2.eth[4].macLayer.queue.transmissionGate[1] gateState:vector ETV
attr enum CLOSED,OPEN
attr interpolationmode sample-hold
attr moduledisplaypath Topology.switch2.eth[4].macLayer.queue.video
attr recordingmode vector
attr source gateStateChanged
attr title "gate state"
attr type enum
vector 134 Topology.switch2.eth[4].macLayer.queue.transmissionGate[1] guardBandState:vector ETV
attr enum ON,OFF
attr interpolationmode sample-hold
attr moduledisplaypath Topology.switch2.eth[4].macLayer.queue.video
attr recordingmode vector
attr source guardBandStateChanged
attr title "guard band state"
attr type enum
vector 135 Topology.switch3.eth[0].macLayer.queue.transmissionGate[0] gateState:vector ETV
attr enum CLOSED,OPEN
attr interpolationmode sample-hold
attr moduledisplaypath Topology.switch3.eth[0].macLayer.queue.besteffort
attr recordingmode vector
attr source gateStateChanged
attr title "gate state"
attr type enum
vector 136 Topology.switch3.eth[0].macLayer.queue.transmissionGate[0] guardBandState:vector ETV
attr enum ON,OFF
attr interpolationmode sample-hold
attr moduledisplaypath Topology.switch3.eth[0].macLayer.queue.besteffort
attr recordingmode vector
attr source guardBandStateChanged
attr title "guard band state"
attr type enum
vector 137 Topology.switch3.eth[0].macLayer.queue.transmissionGate[1] gateState:vector ETV
attr enum CLOSED,OPEN
attr interpolationmode sample-hold
attr moduledisplaypath Topology.switch3.eth[0].macLayer.queue.video
attr recordingmode vector
attr source gateStateChanged
attr title "gate state"
attr type enum
vector 138 Topology.switch3.eth[0].macLayer.queue.transmissionGate[1] guardBandState:vector ETV
attr enum ON,OFF
attr interpolationmode sample-hold
attr moduledisplaypath Topology.switch3.eth[0].macLayer.queue.video
attr recordingmode vector
attr source guardBandStateChanged
attr title "guard band state"
attr type enum
vector 139 Topology.switch3.eth[1].macLayer.queue.transmissionGate[0] gateState:vector ETV
attr enum CLOSED,OPEN
attr interpolationmode sample-hold
attr moduledisplaypath Topology.switch3.eth[1].macLayer.queue.besteffort
attr recordingmode vector
attr source gateStateChanged
attr title "gate state"
attr type enum
vector 140 Topology.switch3.eth[1].macLayer.queue.transmissionGate[0] guardBandState:vector ETV
attr enum ON,OFF
attr interpolationmode sample-hold
attr moduledisplaypath Topology.switch3.eth[1].macLayer.queue.besteffort
attr recordingmode vector
attr source guardBandStateChanged
attr title "guard band state"
attr type enum
vector 141 Topology.switch3.eth[1].macLayer.queue.transmissionGate[1] gateState:vector ETV
attr enum CLOSED,OPEN
attr interpolationmode sample-hold
attr moduledisplaypath Topology.switch3.eth[1].macLayer.queue.video
attr recordingmode vector
attr source gateStateChanged
attr title "gate state"
attr type enum
vector 142 Topology.switch3.eth[1].macLayer.queue.transmissionGate[1] guardBandState:vector ETV
attr enum ON,OFF
attr interpolationmode sample-hold
attr moduledisplaypath Topology.switch3.eth[1].macLayer.queue.video
attr recordingmode vector
attr source guardBandStateChanged
attr title "guard band state"
attr type enum
vector 143 Topology.switch3.eth[2].macLayer.queue.transmissionGate[0] gateState:vector ETV
attr enum CLOSED,OPEN
attr interpolationmode sample-hold
attr moduledisplaypath Topology.switch3.eth[2].macLayer.queue.besteffort
attr recordingmode vector
attr source gateStateChanged
attr title "gate state"
attr type enum
vector 144 Topology.switch3.eth[2].macLayer.queue.transmissionGate[0] guardBandState:vector ETV
attr enum ON,OFF
attr interpolationmode sample-hold
attr moduledisplaypath Topology.switch3.eth[2].macLayer.queue.besteffort
attr recordingmode vector
attr source guardBandStateChanged
attr title "guard band state"
attr type enum
vector 145 Topology.switch3.eth[2].macLayer.queue.transmissionGate[1] gateState:vector ETV
attr enum CLOSED,OPEN
attr interpolationmode sample-hold
attr moduledisplaypath Topology.switch3.eth[2].macLayer.queue.video
attr recordingmode vector
attr source gateStateChanged
attr title "gate state"
attr type enum
vector 146 Topology.switch3.eth[2].macLayer.queue.transmissionGate[1] guardBandState:vector ETV
attr enum ON,OFF
attr interpolationmode sample-hold
attr moduledisplaypath Topology.switch3.eth[2].macLayer.queue.video
attr recordingmode vector
attr source guardBandStateChanged
attr title "guard band state"
attr type enum
vector 147 Topology.switch3.eth[3].macLayer.queue.transmissionGate[0] gateState:vector ETV
attr enum CLOSED,OPEN
attr interpolationmode sample-hold
attr moduledisplaypath Topology.switch3.eth[3].macLayer.queue.besteffort
attr recordingmode vector
attr source gateStateChanged
attr title "gate state"
attr type enum
vector 148 Topology.switch3.eth[3].macLayer.queue.transmissionGate[0] guardBandState:vector ETV
attr enum ON,OFF
attr interpolationmode sample-hold
attr moduledisplaypath Topology.switch3.eth[3].macLayer.queue.besteffort
attr recordingmode vector
attr source guardBandStateChanged
attr title "guard band state"
attr type enum
vector 149 Topology.switch3.eth[3].macLayer.queue.transmissionGate[1] gateState:vector ETV
attr enum CLOSED,OPEN
attr interpolationmode sample-hold
attr moduledisplaypath Topology.switch3.eth[3].macLayer.queue.video
attr recordingmode vector
attr source gateStateChanged
attr title "gate state"
attr type enum
vector 150 Topology.switch3.eth[3].macLayer.queue.transmissionGate[1] guardBandState:vector ETV
attr enum ON,OFF
attr interpolationmode sample-hold
attr moduledisplaypath Topology.switch3.eth[3].macLayer.queue.video
attr recordingmode vector
attr source guardBandStateChanged
attr title "guard band state"
attr type enum
vector 151 Topology.switch3.eth[4].macLayer.queue.transmissionGate[0] gateState:vector ETV
attr enum CLOSED,OPEN
attr interpolationmode sample-hold
attr moduledisplaypath Topology.switch3.eth[4].macLayer.queue.besteffort
attr recordingmode vector
attr source gateStateChanged
attr title "gate state"
attr type enum
vector 152 Topology.switch3.eth[4].macLayer.queue.transmissionGate[0] guardBandState:vector ETV
attr enum ON,OFF
attr interpolationmode sample-hold
attr moduledisplaypath Topology.switch3.eth[4].macLayer.queue.besteffort
attr recordingmode vector
attr source guardBandStateChanged
attr title "guard band state"
attr type enum
vector 153 Topology.switch3.eth[4].macLayer.queue.transmissionGate[1] gateState:vector ETV
attr enum CLOSED,OPEN
attr interpolationmode sample-hold
attr moduledisplaypath Topology.switch3.eth[4].macLayer.queue.video
attr recordingmode vector
attr source gateStateChanged
attr title "gate state"
attr type enum
vector 154 Topology.switch3.eth[4].macLayer.queue.transmissionGate[1] guardBandState:vector ETV
attr enum ON,OFF
attr interpolationmode sample-hold
attr moduledisplaypath Topology.switch3.eth[4].macLayer.queue.video
attr recordingmode vector
attr source guardBandStateChanged
attr title "guard band state"
attr type enum
vector 155 Topology.switch4.eth[0].macLayer.queue.transmissionGate[0] gateState:vector ETV
attr enum CLOSED,OPEN
attr interpolationmode sample-hold
attr moduledisplaypath Topology.switch4.eth[0].macLayer.queue.besteffort
attr recordingmode vector
attr source gateStateChanged
attr title "gate state"
attr type enum
vector 156 Topology.switch4.eth[0].macLayer.queue.transmissionGate[0] guardBandState:vector ETV
attr enum ON,OFF
attr interpolationmode sample-hold
attr moduledisplaypath Topology.switch4.eth[0].macLayer.queue.besteffort
attr recordingmode vector
attr source guardBandStateChanged
attr title "guard band state"
attr type enum
vector 157 Topology.switch4.eth[0].macLayer.queue.transmissionGate[1] gateState:vector ETV
attr enum CLOSED,OPEN
attr interpolationmode sample-hold
attr moduledisplaypath Topology.switch4.eth[0].macLayer.queue.video
attr recordingmode vector
attr source gateStateChanged
attr title "gate state"
attr type enum
vector 158 Topology.switch4.eth[0].macLayer.queue.transmissionGate[1] guardBandState:vector ETV
attr enum ON,OFF
attr interpolationmode sample-hold
attr moduledisplaypath Topology.switch4.eth[0].macLayer.queue.video
attr recordingmode vector
attr source guardBandStateChanged
attr title "guard band state"
attr type enum
vector 159 Topology.switch4.eth[1].macLayer.queue.transmissionGate[0] gateState:vector ETV
attr enum CLOSED,OPEN
attr interpolationmode sample-hold
attr moduledisplaypath Topology.switch4.eth[1].macLayer.queue.besteffort
attr recordingmode vector
attr source gateStateChanged
attr title "gate state"
attr type enum
vector 160 Topology.switch4.eth[1].macLayer.queue.transmissionGate[0] guardBandState:vector ETV
attr enum ON,OFF
attr interpolationmode sample-hold
attr moduledisplaypath Topology.switch4.eth[1].macLayer.queue.besteffort
attr recordingmode vector
attr source guardBandStateChanged
attr title "guard band state"
attr type enum
vector 161 Topology.switch4.eth[1].macLayer.queue.transmissionGate[1] gateState:vector ETV
attr enum CLOSED,OPEN
attr interpolationmode sample-hold
attr moduledisplaypath Topology.switch4.eth[1].macLayer.queue.video
attr recordingmode vector
attr source gateStateChanged
attr title "gate state"
attr type enum
vector 162 Topology.switch4.eth[1].macLayer.queue.transmissionGate[1] guardBandState:vector ETV
attr enum ON,OFF
attr interpolationmode sample-hold
attr moduledisplaypath Topology.switch4.eth[1].macLayer.queue.video
attr recordingmode vector
attr source guardBandStateChanged
attr title "guard band state"
attr type enum
vector 163 Topology.switch4.eth[2].macLayer.queue.transmissionGate[0] gateState:vector ETV
attr enum CLOSED,OPEN
attr interpolationmode sample-hold
attr moduledisplaypath Topology.switch4.eth[2].macLayer.queue.besteffort
attr recordingmode vector
attr source gateStateChanged
attr title "gate state"
attr type enum
vector 164 Topology.switch4.eth[2].macLayer.queue.transmissionGate[0] guardBandState:vector ETV
attr enum ON,OFF
attr interpolationmode sample-hold
attr moduledisplaypath Topology.switch4.eth[2].macLayer.queue.besteffort
attr recordingmode vector
attr source guardBandStateChanged
attr title "guard band state"
attr type enum
vector 165 Topology.switch4.eth[2].macLayer.queue.transmissionGate[1] gateState:vector ETV
attr enum CLOSED,OPEN
attr interpolationmode sample-hold
attr moduledisplaypath Topology.switch4.eth[2].macLayer.queue.video
attr recordingmode vector
attr source gateStateChanged
attr title "gate state"
attr type enum
vector 166 Topology.switch4.eth[2].macLayer.queue.transmissionGate[1] guardBandState:vector ETV
attr enum ON,OFF
attr interpolationmode sample-hold
attr moduledisplaypath Topology.switch4.eth[2].macLayer.queue.video
attr recordingmode vector
attr source guardBandStateChanged
attr title "guard band state"
attr type enum
vector 167 Topology.switch4.eth[3].macLayer.queue.transmissionGate[0] gateState:vector ETV
attr enum CLOSED,OPEN
attr interpolationmode sample-hold
attr moduledisplaypath Topology.switch4.eth[3].macLayer.queue.besteffort
attr recordingmode vector
attr source gateStateChanged
attr title "gate state"
attr type enum
vector 168 Topology.switch4.eth[3].macLayer.queue.transmissionGate[0] guardBandState:vector ETV
attr enum ON,OFF
attr interpolationmode sample-hold
attr moduledisplaypath Topology.switch4.eth[3].macLayer.queue.besteffort
attr recordingmode vector
attr source guardBandStateChanged
attr title "guard band state"
attr type enum
vector 169 Topology.switch4.eth[3].macLayer.queue.transmissionGate[1] gateState:vector ETV
attr enum CLOSED,OPEN
attr interpolationmode sample-hold
attr moduledisplaypath Topology.switch4.eth[3].macLayer.queue.video
attr recordingmode vector
attr source gateStateChanged
attr title "gate state"
attr type enum
vector 170 Topology.switch4.eth[3].macLayer.queue.transmissionGate[1] guardBandState:vector ETV
attr enum ON,OFF
attr interpolationmode sample-hold
attr moduledisplaypath Topology.switch4.eth[3].macLayer.queue.video
attr recordingmode vector
attr source guardBandStateChanged
attr title "guard band state"
attr type enum
vector 171 Topology.switch5.eth[0].macLayer.queue.transmissionGate[0] gateState:vector ETV
attr enum CLOSED,OPEN
attr interpolationmode sample-hold
attr moduledisplaypath Topology.switch5.eth[0].macLayer.queue.besteffort
attr recordingmode vector
attr source gateStateChanged
attr title "gate state"
attr type enum
vector 172 Topology.switch5.eth[0].macLayer.queue.transmissionGate[0] guardBandState:vector ETV
attr enum ON,OFF
attr interpolationmode sample-hold
attr moduledisplaypath Topology.switch5.eth[0].macLayer.queue.besteffort
attr recordingmode vector
attr source guardBandStateChanged
attr title "guard band state"
attr type enum
vector 173 Topology.switch5.eth[0].macLayer.queue.transmissionGate[1] gateState:vector ETV
attr enum CLOSED,OPEN
attr interpolationmode sample-hold
attr moduledisplaypath Topology.switch5.eth[0].macLayer.queue.video
attr recordingmode vector
attr source gateStateChanged
attr title "gate state"
attr type enum
vector 174 Topology.switch5.eth[0].macLayer.queue.transmissionGate[1] guardBandState:vector ETV
attr enum ON,OFF
attr interpolationmode sample-hold
attr moduledisplaypath Topology.switch5.eth[0].macLayer.queue.video
attr recordingmode vector
attr source guardBandStateChanged
attr title "guard band state"
attr type enum
vector 175 Topology.switch5.eth[1].macLayer.queue.transmissionGate[0] gateState:vector ETV
attr enum CLOSED,OPEN
attr interpolationmode sample-hold
attr moduledisplaypath Topology.switch5.eth[1].macLayer.queue.besteffort
attr recordingmode vector
attr source gateStateChanged
attr title "gate state"
attr type enum
vector 176 Topology.switch5.eth[1].macLayer.queue.transmissionGate[0] guardBandState:vector ETV
attr enum ON,OFF
attr interpolationmode sample-hold
attr moduledisplaypath Topology.switch5.eth[1].macLayer.queue.besteffort
attr recordingmode vector
attr source guardBandStateChanged
attr title "guard band state"
attr type enum
vector 177 Topology.switch5.eth[1].macLayer.queue.transmissionGate[1] gateState:vector ETV
attr enum CLOSED,OPEN
attr interpolationmode sample-hold
attr moduledisplaypath Topology.switch5.eth[1].macLayer.queue.video
attr recordingmode vector
attr source gateStateChanged
attr title "gate state"
attr type enum
vector 178 Topology.switch5.eth[1].macLayer.queue.transmissionGate[1] guardBandState:vector ETV
attr enum ON,OFF
attr interpolationmode sample-hold
attr moduledisplaypath Topology.switch5.eth[1].macLayer.queue.video
attr recordingmode vector
attr source guardBandStateChanged
attr title "guard band state"
attr type enum
vector 179 Topology.switch5.eth[2].macLayer.queue.transmissionGate[0] gateState:vector ETV
attr enum CLOSED,OPEN
attr interpolationmode sample-hold
attr moduledisplaypath Topology.switch5.eth[2].macLayer.queue.besteffort
attr recordingmode vector
attr source gateStateChanged
attr title "gate state"
attr type enum
vector 180 Topology.switch5.eth[2].macLayer.queue.transmissionGate[0] guardBandState:vector ETV
attr enum ON,OFF
attr interpolationmode sample-hold
attr moduledisplaypath Topology.switch5.eth[2].macLayer.queue.besteffort
attr recordingmode vector
attr source guardBandStateChanged
attr title "guard band state"
attr type enum
vector 181 Topology.switch5.eth[2].macLayer.queue.transmissionGate[1] gateState:vector ETV
attr enum CLOSED,OPEN
attr interpolationmode sample-hold
attr moduledisplaypath Topology.switch5.eth[2].macLayer.queue.video
attr recordingmode vector
attr source gateStateChanged
attr title "gate state"
attr type enum
vector 182 Topology.switch5.eth[2].macLayer.queue.transmissionGate[1] guardBandState:vector ETV
attr enum ON,OFF
attr interpolationmode sample-hold
attr moduledisplaypath Topology.switch5.eth[2].macLayer.queue.video
attr recordingmode vector
attr source guardBandStateChanged
attr title "guard band state"
attr type enum
vector 183 Topology.switch6.eth[0].macLayer.queue.transmissionGate[0] gateState:vector ETV
attr enum CLOSED,OPEN
attr interpolationmode sample-hold
attr moduledisplaypath Topology.switch6.eth[0].macLayer.queue.besteffort
attr recordingmode vector
attr source gateStateChanged
attr title "gate state"
attr type enum
vector 184 Topology.switch6.eth[0].macLayer.queue.transmissionGate[0] guardBandState:vector ETV
attr enum ON,OFF
attr interpolationmode sample-hold
attr moduledisplaypath Topology.switch6.eth[0].macLayer.queue.besteffort
attr recordingmode vector
attr source guardBandStateChanged
attr title "guard band state"
attr type enum
vector 185 Topology.switch6.eth[0].macLayer.queue.transmissionGate[1] gateState:vector ETV
attr enum CLOSED,OPEN
attr interpolationmode sample-hold
attr moduledisplaypath Topology.switch6.eth[0].macLayer.queue.video
attr recordingmode vector
attr source gateStateChanged
attr title "gate state"
attr type enum
vector 186 Topology.switch6.eth[0].macLayer.queue.transmissionGate[1] guardBandState:vector ETV
attr enum ON,OFF
attr interpolationmode sample-hold
attr moduledisplaypath Topology.switch6.eth[0].macLayer.queue.video
attr recordingmode vector
attr source guardBandStateChanged
attr title "guard band state"
attr type enum
vector 187 Topology.switch6.eth[1].macLayer.queue.transmissionGate[0] gateState:vector ETV
attr enum CLOSED,OPEN
attr interpolationmode sample-hold
attr moduledisplaypath Topology.switch6.eth[1].macLayer.queue.besteffort
attr recordingmode vector
attr source gateStateChanged
attr title "gate state"
attr type enum
vector 188 Topology.switch6.eth[1].macLayer.queue.transmissionGate[0] guardBandState:vector ETV
attr enum ON,OFF
attr interpolationmode sample-hold
attr moduledisplaypath Topology.switch6.eth[1].macLayer.queue.besteffort
attr recordingmode vector
attr source guardBandStateChanged
attr title "guard band state"
attr type enum
vector 189 Topology.switch6.eth[1].macLayer.queue.transmissionGate[1] gateState:vector ETV
attr enum CLOSED,OPEN
attr interpolationmode sample-hold
attr moduledisplaypath Topology.switch6.eth[1].macLayer.queue.video
attr recordingmode vector
attr source gateStateChanged
attr title "gate state"
attr type enum
vector 190 Topology.switch6.eth[1].macLayer.queue.transmissionGate[1] guardBandState:vector ETV
attr enum ON,OFF
attr interpolationmode sample-hold
attr moduledisplaypath Topology.switch6.eth[1].macLayer.queue.video
attr recordingmode vector
attr source guardBandStateChanged
attr title "guard band state"
attr type enum
vector 191 Topology.switch6.eth[2].macLayer.queue.transmissionGate[0] gateState:vector ETV
attr enum CLOSED,OPEN
attr interpolationmode sample-hold
attr moduledisplaypath Topology.switch6.eth[2].macLayer.queue.besteffort
attr recordingmode vector
attr source gateStateChanged
attr title "gate state"
attr type enum
vector 192 Topology.switch6.eth[2].macLayer.queue.transmissionGate[0] guardBandState:vector ETV
attr enum ON,OFF
attr interpolationmode sample-hold
attr moduledisplaypath Topology.switch6.eth[2].macLayer.queue.besteffort
attr recordingmode vector
attr source guardBandStateChanged
attr title "guard band state"
attr type enum
vector 193 Topology.switch6.eth[2].macLayer.queue.transmissionGate[1] gateState:vector ETV
attr enum CLOSED,OPEN
attr interpolationmode sample-hold
attr moduledisplaypath Topology.switch6.eth[2].macLayer.queue.video
attr recordingmode vector
attr source gateStateChanged
attr title "gate state"
attr type enum
vector 194 Topology.switch6.eth[2].macLayer.queue.transmissionGate[1] guardBandState:vector ETV
attr enum ON,OFF
attr interpolationmode sample-hold
attr moduledisplaypath Topology.switch6.eth[2].macLayer.queue.video
attr recordingmode vector
attr source guardBandStateChanged
attr title "guard band state"
attr type enum
vector 195 Topology.switch7.eth[0].macLayer.queue.transmissionGate[0] gateState:vector ETV
attr enum CLOSED,OPEN
attr interpolationmode sample-hold
attr moduledisplaypath Topology.switch7.eth[0].macLayer.queue.besteffort
attr recordingmode vector
attr source gateStateChanged
attr title "gate state"
attr type enum
vector 196 Topology.switch7.eth[0].macLayer.queue.transmissionGate[0] guardBandState:vector ETV
attr enum ON,OFF
attr interpolationmode sample-hold
attr moduledisplaypath Topology.switch7.eth[0].macLayer.queue.besteffort
attr recordingmode vector
attr source guardBandStateChanged
attr title "guard band state"
attr type enum
vector 197 Topology.switch7.eth[0].macLayer.queue.transmissionGate[1] gateState:vector ETV
attr enum CLOSED,OPEN
attr interpolationmode sample-hold
attr moduledisplaypath Topology.switch7.eth[0].macLayer.queue.video
attr recordingmode vector
attr source gateStateChanged
attr title "gate state"
attr type enum
vector 198 Topology.switch7.eth[0].macLayer.queue.transmissionGate[1] guardBandState:vector ETV
attr enum ON,OFF
attr interpolationmode sample-hold
attr moduledisplaypath Topology.switch7.eth[0].macLayer.queue.video
attr recordingmode vector
attr source guardBandStateChanged
attr title "guard band state"
attr type enum
vector 199 Topology.switch7.eth[1].macLayer.queue.transmissionGate[0] gateState:vector ETV
attr enum CLOSED,OPEN
attr interpolationmode sample-hold
attr moduledisplaypath Topology.switch7.eth[1].macLayer.queue.besteffort
attr recordingmode vector
attr source gateStateChanged
attr title "gate state"
attr type enum
vector 200 Topology.switch7.eth[1].macLayer.queue.transmissionGate[0] guardBandState:vector ETV
attr enum ON,OFF
attr interpolationmode sample-hold
attr moduledisplaypath Topology.switch7.eth[1].macLayer.queue.besteffort
attr recordingmode vector
attr source guardBandStateChanged
attr title "guard band state"
attr type enum
vector 201 Topology.switch7.eth[1].macLayer.queue.transmissionGate[1] gateState:vector ETV
attr enum CLOSED,OPEN
attr interpolationmode sample-hold
attr moduledisplaypath Topology.switch7.eth[1].macLayer.queue.video
attr recordingmode vector
attr source gateStateChanged
attr title "gate state"
attr type enum
vector 202 Topology.switch7.eth[1].macLayer.queue.transmissionGate[1] guardBandState:vector ETV
attr enum ON,OFF
attr interpolationmode sample-hold
attr moduledisplaypath Topology.switch7.eth[1].macLayer.queue.video
attr recordingmode vector
attr source guardBandStateChanged
attr title "guard band state"
attr type enum
vector 203 Topology.switch7.eth[2].macLayer.queue.transmissionGate[0] gateState:vector ETV
attr enum CLOSED,OPEN
attr interpolationmode sample-hold
attr moduledisplaypath Topology.switch7.eth[2].macLayer.queue.besteffort
attr recordingmode vector
attr source gateStateChanged
attr title "gate state"
attr type enum
vector 204 Topology.switch7.eth[2].macLayer.queue.transmissionGate[0] guardBandState:vector ETV
attr enum ON,OFF
attr interpolationmode sample-hold
attr moduledisplaypath Topology.switch7.eth[2].macLayer.queue.besteffort
attr recordingmode vector
attr source guardBandStateChanged
attr title "guard band state"
attr type enum
vector 205 Topology.switch7.eth[2].macLayer.queue.transmissionGate[1] gateState:vector ETV
attr enum CLOSED,OPEN
attr interpolationmode sample-hold
attr moduledisplaypath Topology.switch7.eth[2].macLayer.queue.video
attr recordingmode vector
attr source gateStateChanged
attr title "gate state"
attr type enum
vector 206 Topology.switch7.eth[2].macLayer.queue.transmissionGate[1] guardBandState:vector ETV
attr enum ON,OFF
attr interpolationmode sample-hold
attr moduledisplaypath Topology.switch7.eth[2].macLayer.queue.video
attr recordingmode vector
attr source guardBandStateChanged
attr title "guard band state"
attr type enum
0	0	0	0
0	0	0	0
1	0	0	0
1	0	0	0
2	0	0	0
3	0	0	0
4	0	0	0
5	0	0	0
5	0	0	0
6	0	0	0
6	0	0	0
7	0	0	0
7	0	0	0
8	0	0	0
8	0	0	0
9	0	0	0
9	0	0	0
10	0	0	0
10	0	0	0
11	0	0	0
11	0	0	0
12	0	0	0
12	0	0	0
13	0	0	0
13	0	0	0
14	0	0	0
14	0	0	0
15	0	0	0
15	0	0	0
16	0	0	0
16	0	0	0
17	0	0	0
17	0	0	0
18	0	0	0
18	0	0	0
19	0	0	0
19	0	0	0
20	0	0	0
20	0	0	0
21	0	0	0
21	0	0	0
22	0	0	0
22	0	0	0
23	0	0	0
23	0	0	0
24	0	0	0
24	0	0	0
25	0	0	0
25	0	0	0
26	0	0	0
26	0	0	0
27	0	0	0
27	0	0	0
28	0	0	0
28	0	0	0
29	0	0	0
29	0	0	0
30	0	0	0
30	0	0	0
31	0	0	0
31	0	0	0
32	0	0	0
32	0	0	0
33	0	0	0
33	0	0	0
34	0	0	0
34	0	0	0
35	0	0	0
35	0	0	0
36	0	0	0
36	0	0	0
37	0	0	0
37	0	0	0
38	0	0	0
38	0	0	0
39	0	0	0
39	0	0	0
40	0	0	0
40	0	0	0
41	0	0	0
41	0	0	0
42	0	0	0
42	0	0	0
43	0	0	0
43	0	0	0
44	0	0	0
44	0	0	0
45	0	0	0
45	0	0	0
46	0	0	0
46	0	0	0
47	0	0	0
47	0	0	0
48	0	0	0
48	0	0	0
49	0	0	0
49	0	0	0
50	0	0	0
50	0	0	0
51	0	0	0
51	0	0	0
52	0	0	0
52	0	0	0
53	0	0	0
53	0	0	0
54	0	0	0
54	0	0	0
55	0	0	0
55	0	0	0
56	0	0	0
56	0	0	0
57	0	0	0
57	0	0	0
58	0	0	0
58	0	0	0
59	0	0	0
59	0	0	0
60	0	0	0
60	0	0	0
61	0	0	0
62	0	0	0
63	0	0	0
64	0	0	0
64	0	0	0
65	0	0	0
65	0	0	0
66	0	0	0
67	0	0	0
68	0	0	0
69	0	0	0
69	0	0	0
70	0	0	0
70	0	0	0
71	0	0	0
72	0	0	0
73	0	0	0
74	0	0	0
74	0	0	0
75	0	0	0
75	0	0	0
76	0	0	0
77	0	0	0
78	0	0	0
79	0	0	0
79	0	0	0
80	0	0	0
80	0	0	0
81	0	0	0
82	0	0	0
83	0	0	0
84	0	0	0
84	0	0	0
85	0	0	0
85	0	0	0
86	0	0	0
87	0	0	0
88	0	0	0
89	0	0	0
89	0	0	0
90	0	0	0
90	0	0	0
91	0	0	0
92	0	0	0
93	0	0	0
94	0	0	0
94	0	0	0
95	0	0	0
95	0	0	0
96	0	0	0
97	0	0	0
98	0	0	0
99	0	0	1
100	0	0	0
101	0	0	1
102	0	0	0
103	0	0	1
104	0	0	0
105	0	0	1
106	0	0	0
107	0	0	1
108	0	0	0
109	0	0	1
110	0	0	0
111	0	0	1
112	0	0	0
113	0	0	1
114	0	0	0
115	0	0	1
116	0	0	0
117	0	0	1
118	0	0	0
119	0	0	1
120	0	0	0
121	0	0	1
122	0	0	0
123	0	0	1
124	0	0	0
125	0	0	1
126	0	0	0
127	0	0	1
128	0	0	0
129	0	0	1
130	0	0	0
131	0	0	1
132	0	0	0
133	0	0	1
134	0	0	0
135	0	0	1
136	0	0	0
137	0	0	1
138	0	0	0
139	0	0	1
140	0	0	0
141	0	0	1
142	0	0	0
143	0	0	1
144	0	0	0
145	0	0	1
146	0	0	0
147	0	0	1
148	0	0	0
149	0	0	1
150	0	0	0
151	0	0	1
152	0	0	0
153	0	0	1
154	0	0	0
155	0	0	1
156	0	0	0
157	0	0	1
158	0	0	0
159	0	0	1
160	0	0	0
161	0	0	1
162	0	0	0
163	0	0	1
164	0	0	0
165	0	0	1
166	0	0	0
167	0	0	1
168	0	0	0
169	0	0	1
170	0	0	0
171	0	0	1
172	0	0	0
173	0	0	1
174	0	0	0
175	0	0	1
176	0	0	0
177	0	0	1
178	0	0	0
179	0	0	1
180	0	0	0
181	0	0	1
182	0	0	0
183	0	0	1
184	0	0	0
185	0	0	1
186	0	0	0
187	0	0	1
188	0	0	0
189	0	0	1
190	0	0	0
191	0	0	1
192	0	0	0
193	0	0	1
194	0	0	0
195	0	0	1
196	0	0	0
197	0	0	1
198	0	0	0
199	0	0	1
200	0	0	0
201	0	0	1
202	0	0	0
203	0	0	1
204	0	0	0
205	0	0	1
206	0	0	0

